                                  MODFLOW-2005     
      U.S. GEOLOGICAL SURVEY MODULAR FINITE-DIFFERENCE GROUND-WATER FLOW MODEL
                            VERSION 1.12.00 2/3/2017

 LIST FILE: binary_files_mf.list
                         UNIT    2

 OPENING binary_files_mf.dis
 FILE TYPE:DIS   UNIT   11   STATUS:OLD    
 FORMAT:FORMATTED              ACCESS:SEQUENTIAL          

 OPENING binary_files_mf.bas
 FILE TYPE:BAS6   UNIT   13   STATUS:OLD    
 FORMAT:FORMATTED              ACCESS:SEQUENTIAL          

 OPENING binary_files_mf.lpf
 FILE TYPE:LPF   UNIT   15   STATUS:OLD    
 FORMAT:FORMATTED              ACCESS:SEQUENTIAL          

 OPENING binary_files_mf.pcg
 FILE TYPE:PCG   UNIT   27   STATUS:OLD    
 FORMAT:FORMATTED              ACCESS:SEQUENTIAL          

 OPENING binary_files_mf.lmt6
 FILE TYPE:LMT6   UNIT   30   STATUS:OLD    
 FORMAT:FORMATTED              ACCESS:SEQUENTIAL          

 OPENING binary_files_mf.wel
 FILE TYPE:WEL   UNIT   20   STATUS:OLD    
 FORMAT:FORMATTED              ACCESS:SEQUENTIAL          

 OPENING binary_files_mf.oc
 FILE TYPE:OC   UNIT   14   STATUS:OLD    
 FORMAT:FORMATTED              ACCESS:SEQUENTIAL          

 OPENING binary_files_mf.hds
 FILE TYPE:DATA(BINARY)   UNIT   51   STATUS:REPLACE
 FORMAT:UNFORMATTED            ACCESS:STREAM              

 BAS -- BASIC PACKAGE, VERSION 7, 5/2/2005 INPUT READ FROM UNIT   13

 MODFLOW was compiled using mixed precision
 Precision of REAL variables:           6
 Precision of DOUBLE PRECISION variables:          15

 DISCRETIZATION INPUT DATA READ FROM UNIT   11
 # DIS package for  MODFLOW-2005, generated by Flopy.
    1 LAYERS        41 ROWS        81 COLUMNS
   50 STRESS PERIOD(S) IN SIMULATION
 MODEL TIME UNIT IS DAYS
 MODEL LENGTH UNIT IS METERS
  Confining bed flag for each layer:
   0

                     DELR =   31.2500    

                     DELC =   31.2500    

 TOP ELEVATION OF LAYER 1 =   0.00000    

   MODEL LAYER BOTTOM EL. =  -50.0000     FOR LAYER   1


 STRESS PERIOD     LENGTH       TIME STEPS     MULTIPLIER FOR DELT    SS FLAG
 ----------------------------------------------------------------------------
        1         730.0000          1                    1.000         SS
        2         730.0000          1                    1.000         SS
        3         730.0000          1                    1.000         SS
        4         730.0000          1                    1.000         SS
        5         730.0000          1                    1.000         SS
        6         730.0000          1                    1.000         SS
        7         730.0000          1                    1.000         SS
        8         730.0000          1                    1.000         SS
        9         730.0000          1                    1.000         SS
       10         730.0000          1                    1.000         SS
       11         182.5000          1                    1.000         SS
       12         182.5000          1                    1.000         SS
       13         182.5000          1                    1.000         SS
       14         182.5000          1                    1.000         SS
       15         182.5000          1                    1.000         SS
       16         182.5000          1                    1.000         SS
       17         182.5000          1                    1.000         SS
       18         182.5000          1                    1.000         SS
       19         182.5000          1                    1.000         SS
       20         182.5000          1                    1.000         SS
       21         182.5000          1                    1.000         SS
       22         182.5000          1                    1.000         SS
       23         182.5000          1                    1.000         SS
       24         182.5000          1                    1.000         SS
       25         182.5000          1                    1.000         SS
       26         182.5000          1                    1.000         SS
       27         182.5000          1                    1.000         SS
       28         182.5000          1                    1.000         SS
       29         182.5000          1                    1.000         SS
       30         182.5000          1                    1.000         SS
       31         182.5000          1                    1.000         SS
       32         182.5000          1                    1.000         SS
       33         182.5000          1                    1.000         SS
       34         182.5000          1                    1.000         SS
       35         182.5000          1                    1.000         SS
       36         182.5000          1                    1.000         SS
       37         182.5000          1                    1.000         SS
       38         182.5000          1                    1.000         SS
       39         182.5000          1                    1.000         SS
       40         182.5000          1                    1.000         SS
       41         182.5000          1                    1.000         SS
       42         182.5000          1                    1.000         SS
       43         182.5000          1                    1.000         SS
       44         182.5000          1                    1.000         SS
       45         182.5000          1                    1.000         SS
       46         182.5000          1                    1.000         SS
       47         182.5000          1                    1.000         SS
       48         182.5000          1                    1.000         SS
       49         182.5000          1                    1.000         SS
       50         182.5000          1                    1.000         SS

 STEADY-STATE SIMULATION




 # BAS6 package for  MODFLOW-2005, generated by Flopy.                           
 THE FREE FORMAT OPTION HAS BEEN SELECTED



                     BOUNDARY ARRAY FOR LAYER   1
 READING ON UNIT   13 WITH FORMAT: (81I10)             

 AQUIFER HEAD WILL BE SET TO  -999.99     AT ALL NO-FLOW NODES (IBOUND=0).



                       INITIAL HEAD FOR LAYER   1
 READING ON UNIT   13 WITH FORMAT: (81E15.6)           
 # OC package for  MODFLOW-2005, generated by Flopy.

 OUTPUT CONTROL IS SPECIFIED ONLY AT TIME STEPS FOR WHICH OUTPUT IS DESIRED
 COMPACT CELL-BY-CELL BUDGET FILES WILL BE WRITTEN
 AUXILIARY DATA WILL BE SAVED IN CELL-BY-CELL BUDGET FILES
 HEAD PRINT FORMAT CODE IS   0    DRAWDOWN PRINT FORMAT CODE IS   0
 HEADS WILL BE SAVED ON UNIT   51    DRAWDOWNS WILL BE SAVED ON UNIT    0

 LPF -- LAYER-PROPERTY FLOW PACKAGE, VERSION 7, 5/2/2005
         INPUT READ FROM UNIT   15
 # LPF package for  MODFLOW-2005, generated by Flopy.
 HEAD AT CELLS THAT CONVERT TO DRY= -1.00000E+30
 No named parameters

   LAYER FLAGS:
 LAYER       LAYTYP        LAYAVG         CHANI        LAYVKA        LAYWET
 ---------------------------------------------------------------------------
    1             0             0     1.000E+00             0             0

   INTERPRETATION OF LAYER FLAGS:
                        INTERBLOCK     HORIZONTAL    DATA IN
         LAYER TYPE   TRANSMISSIVITY   ANISOTROPY   ARRAY VKA   WETTABILITY
 LAYER      (LAYTYP)      (LAYAVG)       (CHANI)      (LAYVKA)      (LAYWET)
 ---------------------------------------------------------------------------
    1      CONFINED      HARMONIC     1.000E+00    VERTICAL K  NON-WETTABLE

 WETTING CAPABILITY IS NOT ACTIVE IN ANY LAYER



              HYD. COND. ALONG ROWS FOR LAYER   1
 READING ON UNIT   15 WITH FORMAT: (81E15.6)           

      VERTICAL HYD. COND. =   1.00000     FOR LAYER   1

 WEL -- WELL PACKAGE, VERSION 7, 5/2/2005 INPUT READ FROM UNIT   20
 # WEL package for  MODFLOW-2005, generated by Flopy.
 No named parameters
 MAXIMUM OF      1 ACTIVE WELLS AT ONE TIME


     0 Well parameters

 PCG -- CONJUGATE-GRADIENT SOLUTION PACKAGE, VERSION 7, 5/2/2005
 # PCG package for  MODFLOW-2005, generated by Flopy.
 MAXIMUM OF     50 CALLS OF SOLUTION ROUTINE
 MAXIMUM OF     30 INTERNAL ITERATIONS PER CALL TO SOLUTION ROUTINE
 MATRIX PRECONDITIONING TYPE :    1



                                    SOLUTION BY THE CONJUGATE-GRADIENT METHOD
                                   -------------------------------------------
                    MAXIMUM NUMBER OF CALLS TO PCG ROUTINE =       50
                        MAXIMUM ITERATIONS PER CALL TO PCG =       30
                               MATRIX PRECONDITIONING TYPE =        1
        RELAXATION FACTOR (ONLY USED WITH PRECOND. TYPE 1) =    0.10000E+01
 PARAMETER OF POLYNOMIAL PRECOND. = 2 (2) OR IS CALCULATED :        0
                         HEAD CHANGE CRITERION FOR CLOSURE =    0.10000E-04
                     RESIDUAL CHANGE CRITERION FOR CLOSURE =    0.10000E-04
            PCG HEAD AND RESIDUAL CHANGE PRINTOUT INTERVAL =      999
     PRINTING FROM SOLVER IS LIMITED(1) OR SUPPRESSED (>1) =        3
                            STEADY-STATE DAMPING PARAMETER =    0.10000E+01
                               TRANSIENT DAMPING PARAMETER =    0.10000E+01


 ***Link-MT3DMS Package v7***
 OPENING LINK-MT3DMS OUTPUT FILE: mt3d_link.ftl                                                                                                                                                                                           
 ON UNIT NUMBER:    54
 FILE TYPE: UNFORMATTED
 HEADER OPTION: EXTENDED
 ***Link-MT3DMS Package v7***

1
                            STRESS PERIOD NO.    1, LENGTH =   730.0000    
                            -----------------------------------------------

                              NUMBER OF TIME STEPS =     1

                               MULTIPLIER FOR DELT =     1.000

                            INITIAL TIME STEP SIZE =   730.0000    

 WELL NO.  LAYER   ROW   COL   STRESS RATE         
 --------------------------------------------------
      1      1     16     26       100.0    

      1 WELL 

 SOLVING FOR HEAD 

 OUTPUT CONTROL FOR STRESS PERIOD    1   TIME STEP    1
    SAVE HEAD FOR ALL LAYERS

 SAVING SATURATED THICKNESS AND FLOW TERMS ON UNIT   54 FOR MT3DMS
 BY THE LINK-MT3DMS PACKAGE V7 AT TIME STEP    1, STRESS PERIOD    1


 HEAD WILL BE SAVED ON UNIT   51 AT END OF TIME STEP    1, STRESS PERIOD    1
1
  VOLUMETRIC BUDGET FOR ENTIRE MODEL AT END OF TIME STEP    1, STRESS PERIOD   1
  ------------------------------------------------------------------------------

     CUMULATIVE VOLUMES      L**3       RATES FOR THIS TIME STEP      L**3/T
     ------------------                 ------------------------

           IN:                                      IN:
           ---                                      ---
             STORAGE =           0.0000               STORAGE =           0.0000
       CONSTANT HEAD =     1956981.3750         CONSTANT HEAD =        2680.7964
               WELLS =       73000.0000                 WELLS =         100.0000

            TOTAL IN =     2029981.3750              TOTAL IN =        2780.7964

          OUT:                                     OUT:
          ----                                     ----
             STORAGE =           0.0000               STORAGE =           0.0000
       CONSTANT HEAD =     2029981.3750         CONSTANT HEAD =        2780.7964
               WELLS =           0.0000                 WELLS =           0.0000

           TOTAL OUT =     2029981.3750             TOTAL OUT =        2780.7964

            IN - OUT =           0.0000              IN - OUT =           0.0000

 PERCENT DISCREPANCY =           0.00     PERCENT DISCREPANCY =           0.00






         TIME SUMMARY AT END OF TIME STEP    1 IN STRESS PERIOD    1
                    SECONDS     MINUTES      HOURS       DAYS        YEARS
                    -----------------------------------------------------------
   TIME STEP LENGTH 6.30720E+07 1.05120E+06  17520.      730.00      1.9986    
 STRESS PERIOD TIME 6.30720E+07 1.05120E+06  17520.      730.00      1.9986    
         TOTAL TIME 6.30720E+07 1.05120E+06  17520.      730.00      1.9986    
1
1
                            STRESS PERIOD NO.    2, LENGTH =   730.0000    
                            -----------------------------------------------

                              NUMBER OF TIME STEPS =     1

                               MULTIPLIER FOR DELT =     1.000

                            INITIAL TIME STEP SIZE =   730.0000    

 WELL NO.  LAYER   ROW   COL   STRESS RATE         
 --------------------------------------------------
      1      1     16     26       100.0    

      1 WELL 

 SOLVING FOR HEAD 

 NO OUTPUT CONTROL FOR STRESS PERIOD    2   TIME STEP    1

 SAVING SATURATED THICKNESS AND FLOW TERMS ON UNIT   54 FOR MT3DMS
 BY THE LINK-MT3DMS PACKAGE V7 AT TIME STEP    1, STRESS PERIOD    2

1
  VOLUMETRIC BUDGET FOR ENTIRE MODEL AT END OF TIME STEP    1, STRESS PERIOD   2
  ------------------------------------------------------------------------------

     CUMULATIVE VOLUMES      L**3       RATES FOR THIS TIME STEP      L**3/T
     ------------------                 ------------------------

           IN:                                      IN:
           ---                                      ---
             STORAGE =           0.0000               STORAGE =           0.0000
       CONSTANT HEAD =     3913962.7500         CONSTANT HEAD =        2680.7964
               WELLS =      146000.0000                 WELLS =         100.0000

            TOTAL IN =     4059962.7500              TOTAL IN =        2780.7964

          OUT:                                     OUT:
          ----                                     ----
             STORAGE =           0.0000               STORAGE =           0.0000
       CONSTANT HEAD =     4059962.7500         CONSTANT HEAD =        2780.7964
               WELLS =           0.0000                 WELLS =           0.0000

           TOTAL OUT =     4059962.7500             TOTAL OUT =        2780.7964

            IN - OUT =           0.0000              IN - OUT =           0.0000

 PERCENT DISCREPANCY =           0.00     PERCENT DISCREPANCY =           0.00






         TIME SUMMARY AT END OF TIME STEP    1 IN STRESS PERIOD    2
                    SECONDS     MINUTES      HOURS       DAYS        YEARS
                    -----------------------------------------------------------
   TIME STEP LENGTH 6.30720E+07 1.05120E+06  17520.      730.00      1.9986    
 STRESS PERIOD TIME 6.30720E+07 1.05120E+06  17520.      730.00      1.9986    
         TOTAL TIME 1.26144E+08 2.10240E+06  35040.      1460.0      3.9973    
1
1
                            STRESS PERIOD NO.    3, LENGTH =   730.0000    
                            -----------------------------------------------

                              NUMBER OF TIME STEPS =     1

                               MULTIPLIER FOR DELT =     1.000

                            INITIAL TIME STEP SIZE =   730.0000    

 WELL NO.  LAYER   ROW   COL   STRESS RATE         
 --------------------------------------------------
      1      1     16     26       100.0    

      1 WELL 

 SOLVING FOR HEAD 

 NO OUTPUT CONTROL FOR STRESS PERIOD    3   TIME STEP    1

 SAVING SATURATED THICKNESS AND FLOW TERMS ON UNIT   54 FOR MT3DMS
 BY THE LINK-MT3DMS PACKAGE V7 AT TIME STEP    1, STRESS PERIOD    3

1
  VOLUMETRIC BUDGET FOR ENTIRE MODEL AT END OF TIME STEP    1, STRESS PERIOD   3
  ------------------------------------------------------------------------------

     CUMULATIVE VOLUMES      L**3       RATES FOR THIS TIME STEP      L**3/T
     ------------------                 ------------------------

           IN:                                      IN:
           ---                                      ---
             STORAGE =           0.0000               STORAGE =           0.0000
       CONSTANT HEAD =     5870944.0000         CONSTANT HEAD =        2680.7964
               WELLS =      219000.0000                 WELLS =         100.0000

            TOTAL IN =     6089944.0000              TOTAL IN =        2780.7964

          OUT:                                     OUT:
          ----                                     ----
             STORAGE =           0.0000               STORAGE =           0.0000
       CONSTANT HEAD =     6089944.0000         CONSTANT HEAD =        2780.7964
               WELLS =           0.0000                 WELLS =           0.0000

           TOTAL OUT =     6089944.0000             TOTAL OUT =        2780.7964

            IN - OUT =           0.0000              IN - OUT =           0.0000

 PERCENT DISCREPANCY =           0.00     PERCENT DISCREPANCY =           0.00






         TIME SUMMARY AT END OF TIME STEP    1 IN STRESS PERIOD    3
                    SECONDS     MINUTES      HOURS       DAYS        YEARS
                    -----------------------------------------------------------
   TIME STEP LENGTH 6.30720E+07 1.05120E+06  17520.      730.00      1.9986    
 STRESS PERIOD TIME 6.30720E+07 1.05120E+06  17520.      730.00      1.9986    
         TOTAL TIME 1.89216E+08 3.15360E+06  52560.      2190.0      5.9959    
1
1
                            STRESS PERIOD NO.    4, LENGTH =   730.0000    
                            -----------------------------------------------

                              NUMBER OF TIME STEPS =     1

                               MULTIPLIER FOR DELT =     1.000

                            INITIAL TIME STEP SIZE =   730.0000    

 WELL NO.  LAYER   ROW   COL   STRESS RATE         
 --------------------------------------------------
      1      1     16     26       100.0    

      1 WELL 

 SOLVING FOR HEAD 

 NO OUTPUT CONTROL FOR STRESS PERIOD    4   TIME STEP    1

 SAVING SATURATED THICKNESS AND FLOW TERMS ON UNIT   54 FOR MT3DMS
 BY THE LINK-MT3DMS PACKAGE V7 AT TIME STEP    1, STRESS PERIOD    4

1
  VOLUMETRIC BUDGET FOR ENTIRE MODEL AT END OF TIME STEP    1, STRESS PERIOD   4
  ------------------------------------------------------------------------------

     CUMULATIVE VOLUMES      L**3       RATES FOR THIS TIME STEP      L**3/T
     ------------------                 ------------------------

           IN:                                      IN:
           ---                                      ---
             STORAGE =           0.0000               STORAGE =           0.0000
       CONSTANT HEAD =     7827925.5000         CONSTANT HEAD =        2680.7964
               WELLS =      292000.0000                 WELLS =         100.0000

            TOTAL IN =     8119925.5000              TOTAL IN =        2780.7964

          OUT:                                     OUT:
          ----                                     ----
             STORAGE =           0.0000               STORAGE =           0.0000
       CONSTANT HEAD =     8119925.5000         CONSTANT HEAD =        2780.7964
               WELLS =           0.0000                 WELLS =           0.0000

           TOTAL OUT =     8119925.5000             TOTAL OUT =        2780.7964

            IN - OUT =           0.0000              IN - OUT =           0.0000

 PERCENT DISCREPANCY =           0.00     PERCENT DISCREPANCY =           0.00






         TIME SUMMARY AT END OF TIME STEP    1 IN STRESS PERIOD    4
                    SECONDS     MINUTES      HOURS       DAYS        YEARS
                    -----------------------------------------------------------
   TIME STEP LENGTH 6.30720E+07 1.05120E+06  17520.      730.00      1.9986    
 STRESS PERIOD TIME 6.30720E+07 1.05120E+06  17520.      730.00      1.9986    
         TOTAL TIME 2.52288E+08 4.20480E+06  70080.      2920.0      7.9945    
1
1
                            STRESS PERIOD NO.    5, LENGTH =   730.0000    
                            -----------------------------------------------

                              NUMBER OF TIME STEPS =     1

                               MULTIPLIER FOR DELT =     1.000

                            INITIAL TIME STEP SIZE =   730.0000    

 WELL NO.  LAYER   ROW   COL   STRESS RATE         
 --------------------------------------------------
      1      1     16     26       100.0    

      1 WELL 

 SOLVING FOR HEAD 

 NO OUTPUT CONTROL FOR STRESS PERIOD    5   TIME STEP    1

 SAVING SATURATED THICKNESS AND FLOW TERMS ON UNIT   54 FOR MT3DMS
 BY THE LINK-MT3DMS PACKAGE V7 AT TIME STEP    1, STRESS PERIOD    5

1
  VOLUMETRIC BUDGET FOR ENTIRE MODEL AT END OF TIME STEP    1, STRESS PERIOD   5
  ------------------------------------------------------------------------------

     CUMULATIVE VOLUMES      L**3       RATES FOR THIS TIME STEP      L**3/T
     ------------------                 ------------------------

           IN:                                      IN:
           ---                                      ---
             STORAGE =           0.0000               STORAGE =           0.0000
       CONSTANT HEAD =     9784907.0000         CONSTANT HEAD =        2680.7964
               WELLS =      365000.0000                 WELLS =         100.0000

            TOTAL IN =    10149907.0000              TOTAL IN =        2780.7964

          OUT:                                     OUT:
          ----                                     ----
             STORAGE =           0.0000               STORAGE =           0.0000
       CONSTANT HEAD =    10149907.0000         CONSTANT HEAD =        2780.7964
               WELLS =           0.0000                 WELLS =           0.0000

           TOTAL OUT =    10149907.0000             TOTAL OUT =        2780.7964

            IN - OUT =           0.0000              IN - OUT =           0.0000

 PERCENT DISCREPANCY =           0.00     PERCENT DISCREPANCY =           0.00






         TIME SUMMARY AT END OF TIME STEP    1 IN STRESS PERIOD    5
                    SECONDS     MINUTES      HOURS       DAYS        YEARS
                    -----------------------------------------------------------
   TIME STEP LENGTH 6.30720E+07 1.05120E+06  17520.      730.00      1.9986    
 STRESS PERIOD TIME 6.30720E+07 1.05120E+06  17520.      730.00      1.9986    
         TOTAL TIME 3.15360E+08 5.25600E+06  87600.      3650.0      9.9932    
1
1
                            STRESS PERIOD NO.    6, LENGTH =   730.0000    
                            -----------------------------------------------

                              NUMBER OF TIME STEPS =     1

                               MULTIPLIER FOR DELT =     1.000

                            INITIAL TIME STEP SIZE =   730.0000    

 WELL NO.  LAYER   ROW   COL   STRESS RATE         
 --------------------------------------------------
      1      1     16     26       100.0    

      1 WELL 

 SOLVING FOR HEAD 

 NO OUTPUT CONTROL FOR STRESS PERIOD    6   TIME STEP    1

 SAVING SATURATED THICKNESS AND FLOW TERMS ON UNIT   54 FOR MT3DMS
 BY THE LINK-MT3DMS PACKAGE V7 AT TIME STEP    1, STRESS PERIOD    6

1
  VOLUMETRIC BUDGET FOR ENTIRE MODEL AT END OF TIME STEP    1, STRESS PERIOD   6
  ------------------------------------------------------------------------------

     CUMULATIVE VOLUMES      L**3       RATES FOR THIS TIME STEP      L**3/T
     ------------------                 ------------------------

           IN:                                      IN:
           ---                                      ---
             STORAGE =           0.0000               STORAGE =           0.0000
       CONSTANT HEAD =    11741888.0000         CONSTANT HEAD =        2680.7964
               WELLS =      438000.0000                 WELLS =         100.0000

            TOTAL IN =    12179888.0000              TOTAL IN =        2780.7964

          OUT:                                     OUT:
          ----                                     ----
             STORAGE =           0.0000               STORAGE =           0.0000
       CONSTANT HEAD =    12179888.0000         CONSTANT HEAD =        2780.7964
               WELLS =           0.0000                 WELLS =           0.0000

           TOTAL OUT =    12179888.0000             TOTAL OUT =        2780.7964

            IN - OUT =           0.0000              IN - OUT =           0.0000

 PERCENT DISCREPANCY =           0.00     PERCENT DISCREPANCY =           0.00






         TIME SUMMARY AT END OF TIME STEP    1 IN STRESS PERIOD    6
                    SECONDS     MINUTES      HOURS       DAYS        YEARS
                    -----------------------------------------------------------
   TIME STEP LENGTH 6.30720E+07 1.05120E+06  17520.      730.00      1.9986    
 STRESS PERIOD TIME 6.30720E+07 1.05120E+06  17520.      730.00      1.9986    
         TOTAL TIME 3.78432E+08 6.30720E+06 1.05120E+05  4380.0      11.992    
1
1
                            STRESS PERIOD NO.    7, LENGTH =   730.0000    
                            -----------------------------------------------

                              NUMBER OF TIME STEPS =     1

                               MULTIPLIER FOR DELT =     1.000

                            INITIAL TIME STEP SIZE =   730.0000    

 WELL NO.  LAYER   ROW   COL   STRESS RATE         
 --------------------------------------------------
      1      1     16     26       100.0    

      1 WELL 

 SOLVING FOR HEAD 

 NO OUTPUT CONTROL FOR STRESS PERIOD    7   TIME STEP    1

 SAVING SATURATED THICKNESS AND FLOW TERMS ON UNIT   54 FOR MT3DMS
 BY THE LINK-MT3DMS PACKAGE V7 AT TIME STEP    1, STRESS PERIOD    7

1
  VOLUMETRIC BUDGET FOR ENTIRE MODEL AT END OF TIME STEP    1, STRESS PERIOD   7
  ------------------------------------------------------------------------------

     CUMULATIVE VOLUMES      L**3       RATES FOR THIS TIME STEP      L**3/T
     ------------------                 ------------------------

           IN:                                      IN:
           ---                                      ---
             STORAGE =           0.0000               STORAGE =           0.0000
       CONSTANT HEAD =    13698869.0000         CONSTANT HEAD =        2680.7964
               WELLS =      511000.0000                 WELLS =         100.0000

            TOTAL IN =    14209869.0000              TOTAL IN =        2780.7964

          OUT:                                     OUT:
          ----                                     ----
             STORAGE =           0.0000               STORAGE =           0.0000
       CONSTANT HEAD =    14209869.0000         CONSTANT HEAD =        2780.7964
               WELLS =           0.0000                 WELLS =           0.0000

           TOTAL OUT =    14209869.0000             TOTAL OUT =        2780.7964

            IN - OUT =           0.0000              IN - OUT =           0.0000

 PERCENT DISCREPANCY =           0.00     PERCENT DISCREPANCY =           0.00






         TIME SUMMARY AT END OF TIME STEP    1 IN STRESS PERIOD    7
                    SECONDS     MINUTES      HOURS       DAYS        YEARS
                    -----------------------------------------------------------
   TIME STEP LENGTH 6.30720E+07 1.05120E+06  17520.      730.00      1.9986    
 STRESS PERIOD TIME 6.30720E+07 1.05120E+06  17520.      730.00      1.9986    
         TOTAL TIME 4.41504E+08 7.35840E+06 1.22640E+05  5110.0      13.990    
1
1
                            STRESS PERIOD NO.    8, LENGTH =   730.0000    
                            -----------------------------------------------

                              NUMBER OF TIME STEPS =     1

                               MULTIPLIER FOR DELT =     1.000

                            INITIAL TIME STEP SIZE =   730.0000    

 WELL NO.  LAYER   ROW   COL   STRESS RATE         
 --------------------------------------------------
      1      1     16     26       100.0    

      1 WELL 

 SOLVING FOR HEAD 

 NO OUTPUT CONTROL FOR STRESS PERIOD    8   TIME STEP    1

 SAVING SATURATED THICKNESS AND FLOW TERMS ON UNIT   54 FOR MT3DMS
 BY THE LINK-MT3DMS PACKAGE V7 AT TIME STEP    1, STRESS PERIOD    8

1
  VOLUMETRIC BUDGET FOR ENTIRE MODEL AT END OF TIME STEP    1, STRESS PERIOD   8
  ------------------------------------------------------------------------------

     CUMULATIVE VOLUMES      L**3       RATES FOR THIS TIME STEP      L**3/T
     ------------------                 ------------------------

           IN:                                      IN:
           ---                                      ---
             STORAGE =           0.0000               STORAGE =           0.0000
       CONSTANT HEAD =    15655850.0000         CONSTANT HEAD =        2680.7964
               WELLS =      584000.0000                 WELLS =         100.0000

            TOTAL IN =    16239850.0000              TOTAL IN =        2780.7964

          OUT:                                     OUT:
          ----                                     ----
             STORAGE =           0.0000               STORAGE =           0.0000
       CONSTANT HEAD =    16239850.0000         CONSTANT HEAD =        2780.7964
               WELLS =           0.0000                 WELLS =           0.0000

           TOTAL OUT =    16239850.0000             TOTAL OUT =        2780.7964

            IN - OUT =           0.0000              IN - OUT =           0.0000

 PERCENT DISCREPANCY =           0.00     PERCENT DISCREPANCY =           0.00






         TIME SUMMARY AT END OF TIME STEP    1 IN STRESS PERIOD    8
                    SECONDS     MINUTES      HOURS       DAYS        YEARS
                    -----------------------------------------------------------
   TIME STEP LENGTH 6.30720E+07 1.05120E+06  17520.      730.00      1.9986    
 STRESS PERIOD TIME 6.30720E+07 1.05120E+06  17520.      730.00      1.9986    
         TOTAL TIME 5.04576E+08 8.40960E+06 1.40160E+05  5840.0      15.989    
1
1
                            STRESS PERIOD NO.    9, LENGTH =   730.0000    
                            -----------------------------------------------

                              NUMBER OF TIME STEPS =     1

                               MULTIPLIER FOR DELT =     1.000

                            INITIAL TIME STEP SIZE =   730.0000    

 WELL NO.  LAYER   ROW   COL   STRESS RATE         
 --------------------------------------------------
      1      1     16     26       100.0    

      1 WELL 

 SOLVING FOR HEAD 

 NO OUTPUT CONTROL FOR STRESS PERIOD    9   TIME STEP    1

 SAVING SATURATED THICKNESS AND FLOW TERMS ON UNIT   54 FOR MT3DMS
 BY THE LINK-MT3DMS PACKAGE V7 AT TIME STEP    1, STRESS PERIOD    9

1
  VOLUMETRIC BUDGET FOR ENTIRE MODEL AT END OF TIME STEP    1, STRESS PERIOD   9
  ------------------------------------------------------------------------------

     CUMULATIVE VOLUMES      L**3       RATES FOR THIS TIME STEP      L**3/T
     ------------------                 ------------------------

           IN:                                      IN:
           ---                                      ---
             STORAGE =           0.0000               STORAGE =           0.0000
       CONSTANT HEAD =    17612832.0000         CONSTANT HEAD =        2680.7964
               WELLS =      657000.0000                 WELLS =         100.0000

            TOTAL IN =    18269832.0000              TOTAL IN =        2780.7964

          OUT:                                     OUT:
          ----                                     ----
             STORAGE =           0.0000               STORAGE =           0.0000
       CONSTANT HEAD =    18269832.0000         CONSTANT HEAD =        2780.7964
               WELLS =           0.0000                 WELLS =           0.0000

           TOTAL OUT =    18269832.0000             TOTAL OUT =        2780.7964

            IN - OUT =           0.0000              IN - OUT =           0.0000

 PERCENT DISCREPANCY =           0.00     PERCENT DISCREPANCY =           0.00






         TIME SUMMARY AT END OF TIME STEP    1 IN STRESS PERIOD    9
                    SECONDS     MINUTES      HOURS       DAYS        YEARS
                    -----------------------------------------------------------
   TIME STEP LENGTH 6.30720E+07 1.05120E+06  17520.      730.00      1.9986    
 STRESS PERIOD TIME 6.30720E+07 1.05120E+06  17520.      730.00      1.9986    
         TOTAL TIME 5.67648E+08 9.46080E+06 1.57680E+05  6570.0      17.988    
1
1
                            STRESS PERIOD NO.   10, LENGTH =   730.0000    
                            -----------------------------------------------

                              NUMBER OF TIME STEPS =     1

                               MULTIPLIER FOR DELT =     1.000

                            INITIAL TIME STEP SIZE =   730.0000    

 WELL NO.  LAYER   ROW   COL   STRESS RATE         
 --------------------------------------------------
      1      1     16     26       100.0    

      1 WELL 

 SOLVING FOR HEAD 

 NO OUTPUT CONTROL FOR STRESS PERIOD   10   TIME STEP    1

 SAVING SATURATED THICKNESS AND FLOW TERMS ON UNIT   54 FOR MT3DMS
 BY THE LINK-MT3DMS PACKAGE V7 AT TIME STEP    1, STRESS PERIOD   10

1
  VOLUMETRIC BUDGET FOR ENTIRE MODEL AT END OF TIME STEP    1, STRESS PERIOD  10
  ------------------------------------------------------------------------------

     CUMULATIVE VOLUMES      L**3       RATES FOR THIS TIME STEP      L**3/T
     ------------------                 ------------------------

           IN:                                      IN:
           ---                                      ---
             STORAGE =           0.0000               STORAGE =           0.0000
       CONSTANT HEAD =    19569814.0000         CONSTANT HEAD =        2680.7964
               WELLS =      730000.0000                 WELLS =         100.0000

            TOTAL IN =    20299814.0000              TOTAL IN =        2780.7964

          OUT:                                     OUT:
          ----                                     ----
             STORAGE =           0.0000               STORAGE =           0.0000
       CONSTANT HEAD =    20299814.0000         CONSTANT HEAD =        2780.7964
               WELLS =           0.0000                 WELLS =           0.0000

           TOTAL OUT =    20299814.0000             TOTAL OUT =        2780.7964

            IN - OUT =           0.0000              IN - OUT =           0.0000

 PERCENT DISCREPANCY =           0.00     PERCENT DISCREPANCY =           0.00






         TIME SUMMARY AT END OF TIME STEP    1 IN STRESS PERIOD   10
                    SECONDS     MINUTES      HOURS       DAYS        YEARS
                    -----------------------------------------------------------
   TIME STEP LENGTH 6.30720E+07 1.05120E+06  17520.      730.00      1.9986    
 STRESS PERIOD TIME 6.30720E+07 1.05120E+06  17520.      730.00      1.9986    
         TOTAL TIME 6.30720E+08 1.05120E+07 1.75200E+05  7300.0      19.986    
1
1
                            STRESS PERIOD NO.   11, LENGTH =   182.5000    
                            -----------------------------------------------

                              NUMBER OF TIME STEPS =     1

                               MULTIPLIER FOR DELT =     1.000

                            INITIAL TIME STEP SIZE =   182.5000    

 WELL NO.  LAYER   ROW   COL   STRESS RATE         
 --------------------------------------------------
      1      1     26     26       0.000    

      1 WELL 

 SOLVING FOR HEAD 

 NO OUTPUT CONTROL FOR STRESS PERIOD   11   TIME STEP    1

 SAVING SATURATED THICKNESS AND FLOW TERMS ON UNIT   54 FOR MT3DMS
 BY THE LINK-MT3DMS PACKAGE V7 AT TIME STEP    1, STRESS PERIOD   11

1
  VOLUMETRIC BUDGET FOR ENTIRE MODEL AT END OF TIME STEP    1, STRESS PERIOD  11
  ------------------------------------------------------------------------------

     CUMULATIVE VOLUMES      L**3       RATES FOR THIS TIME STEP      L**3/T
     ------------------                 ------------------------

           IN:                                      IN:
           ---                                      ---
             STORAGE =           0.0000               STORAGE =           0.0000
       CONSTANT HEAD =    20071908.0000         CONSTANT HEAD =        2751.2017
               WELLS =      730000.0000                 WELLS =           0.0000

            TOTAL IN =    20801908.0000              TOTAL IN =        2751.2017

          OUT:                                     OUT:
          ----                                     ----
             STORAGE =           0.0000               STORAGE =           0.0000
       CONSTANT HEAD =    20801908.0000         CONSTANT HEAD =        2751.2017
               WELLS =           0.0000                 WELLS =           0.0000

           TOTAL OUT =    20801908.0000             TOTAL OUT =        2751.2017

            IN - OUT =           0.0000              IN - OUT =           0.0000

 PERCENT DISCREPANCY =           0.00     PERCENT DISCREPANCY =           0.00






         TIME SUMMARY AT END OF TIME STEP    1 IN STRESS PERIOD   11
                    SECONDS     MINUTES      HOURS       DAYS        YEARS
                    -----------------------------------------------------------
   TIME STEP LENGTH 1.57680E+07 2.62800E+05  4380.0      182.50     0.49966    
 STRESS PERIOD TIME 1.57680E+07 2.62800E+05  4380.0      182.50     0.49966    
         TOTAL TIME 6.46488E+08 1.07748E+07 1.79580E+05  7482.5      20.486    
1
1
                            STRESS PERIOD NO.   12, LENGTH =   182.5000    
                            -----------------------------------------------

                              NUMBER OF TIME STEPS =     1

                               MULTIPLIER FOR DELT =     1.000

                            INITIAL TIME STEP SIZE =   182.5000    

 REUSING NON-PARAMETER WELLS FROM LAST STRESS PERIOD

      1 WELL 

 SOLVING FOR HEAD 

 NO OUTPUT CONTROL FOR STRESS PERIOD   12   TIME STEP    1

 SAVING SATURATED THICKNESS AND FLOW TERMS ON UNIT   54 FOR MT3DMS
 BY THE LINK-MT3DMS PACKAGE V7 AT TIME STEP    1, STRESS PERIOD   12

1
  VOLUMETRIC BUDGET FOR ENTIRE MODEL AT END OF TIME STEP    1, STRESS PERIOD  12
  ------------------------------------------------------------------------------

     CUMULATIVE VOLUMES      L**3       RATES FOR THIS TIME STEP      L**3/T
     ------------------                 ------------------------

           IN:                                      IN:
           ---                                      ---
             STORAGE =           0.0000               STORAGE =           0.0000
       CONSTANT HEAD =    20574002.0000         CONSTANT HEAD =        2751.2017
               WELLS =      730000.0000                 WELLS =           0.0000

            TOTAL IN =    21304002.0000              TOTAL IN =        2751.2017

          OUT:                                     OUT:
          ----                                     ----
             STORAGE =           0.0000               STORAGE =           0.0000
       CONSTANT HEAD =    21304002.0000         CONSTANT HEAD =        2751.2017
               WELLS =           0.0000                 WELLS =           0.0000

           TOTAL OUT =    21304002.0000             TOTAL OUT =        2751.2017

            IN - OUT =           0.0000              IN - OUT =           0.0000

 PERCENT DISCREPANCY =           0.00     PERCENT DISCREPANCY =           0.00






         TIME SUMMARY AT END OF TIME STEP    1 IN STRESS PERIOD   12
                    SECONDS     MINUTES      HOURS       DAYS        YEARS
                    -----------------------------------------------------------
   TIME STEP LENGTH 1.57680E+07 2.62800E+05  4380.0      182.50     0.49966    
 STRESS PERIOD TIME 1.57680E+07 2.62800E+05  4380.0      182.50     0.49966    
         TOTAL TIME 6.62256E+08 1.10376E+07 1.83960E+05  7665.0      20.986    
1
1
                            STRESS PERIOD NO.   13, LENGTH =   182.5000    
                            -----------------------------------------------

                              NUMBER OF TIME STEPS =     1

                               MULTIPLIER FOR DELT =     1.000

                            INITIAL TIME STEP SIZE =   182.5000    

 REUSING NON-PARAMETER WELLS FROM LAST STRESS PERIOD

      1 WELL 

 SOLVING FOR HEAD 

 NO OUTPUT CONTROL FOR STRESS PERIOD   13   TIME STEP    1

 SAVING SATURATED THICKNESS AND FLOW TERMS ON UNIT   54 FOR MT3DMS
 BY THE LINK-MT3DMS PACKAGE V7 AT TIME STEP    1, STRESS PERIOD   13

1
  VOLUMETRIC BUDGET FOR ENTIRE MODEL AT END OF TIME STEP    1, STRESS PERIOD  13
  ------------------------------------------------------------------------------

     CUMULATIVE VOLUMES      L**3       RATES FOR THIS TIME STEP      L**3/T
     ------------------                 ------------------------

           IN:                                      IN:
           ---                                      ---
             STORAGE =           0.0000               STORAGE =           0.0000
       CONSTANT HEAD =    21076096.0000         CONSTANT HEAD =        2751.2017
               WELLS =      730000.0000                 WELLS =           0.0000

            TOTAL IN =    21806096.0000              TOTAL IN =        2751.2017

          OUT:                                     OUT:
          ----                                     ----
             STORAGE =           0.0000               STORAGE =           0.0000
       CONSTANT HEAD =    21806096.0000         CONSTANT HEAD =        2751.2017
               WELLS =           0.0000                 WELLS =           0.0000

           TOTAL OUT =    21806096.0000             TOTAL OUT =        2751.2017

            IN - OUT =           0.0000              IN - OUT =           0.0000

 PERCENT DISCREPANCY =           0.00     PERCENT DISCREPANCY =           0.00






         TIME SUMMARY AT END OF TIME STEP    1 IN STRESS PERIOD   13
                    SECONDS     MINUTES      HOURS       DAYS        YEARS
                    -----------------------------------------------------------
   TIME STEP LENGTH 1.57680E+07 2.62800E+05  4380.0      182.50     0.49966    
 STRESS PERIOD TIME 1.57680E+07 2.62800E+05  4380.0      182.50     0.49966    
         TOTAL TIME 6.78024E+08 1.13004E+07 1.88340E+05  7847.5      21.485    
1
1
                            STRESS PERIOD NO.   14, LENGTH =   182.5000    
                            -----------------------------------------------

                              NUMBER OF TIME STEPS =     1

                               MULTIPLIER FOR DELT =     1.000

                            INITIAL TIME STEP SIZE =   182.5000    

 REUSING NON-PARAMETER WELLS FROM LAST STRESS PERIOD

      1 WELL 

 SOLVING FOR HEAD 

 NO OUTPUT CONTROL FOR STRESS PERIOD   14   TIME STEP    1

 SAVING SATURATED THICKNESS AND FLOW TERMS ON UNIT   54 FOR MT3DMS
 BY THE LINK-MT3DMS PACKAGE V7 AT TIME STEP    1, STRESS PERIOD   14

1
  VOLUMETRIC BUDGET FOR ENTIRE MODEL AT END OF TIME STEP    1, STRESS PERIOD  14
  ------------------------------------------------------------------------------

     CUMULATIVE VOLUMES      L**3       RATES FOR THIS TIME STEP      L**3/T
     ------------------                 ------------------------

           IN:                                      IN:
           ---                                      ---
             STORAGE =           0.0000               STORAGE =           0.0000
       CONSTANT HEAD =    21578190.0000         CONSTANT HEAD =        2751.2017
               WELLS =      730000.0000                 WELLS =           0.0000

            TOTAL IN =    22308190.0000              TOTAL IN =        2751.2017

          OUT:                                     OUT:
          ----                                     ----
             STORAGE =           0.0000               STORAGE =           0.0000
       CONSTANT HEAD =    22308190.0000         CONSTANT HEAD =        2751.2017
               WELLS =           0.0000                 WELLS =           0.0000

           TOTAL OUT =    22308190.0000             TOTAL OUT =        2751.2017

            IN - OUT =           0.0000              IN - OUT =           0.0000

 PERCENT DISCREPANCY =           0.00     PERCENT DISCREPANCY =           0.00






         TIME SUMMARY AT END OF TIME STEP    1 IN STRESS PERIOD   14
                    SECONDS     MINUTES      HOURS       DAYS        YEARS
                    -----------------------------------------------------------
   TIME STEP LENGTH 1.57680E+07 2.62800E+05  4380.0      182.50     0.49966    
 STRESS PERIOD TIME 1.57680E+07 2.62800E+05  4380.0      182.50     0.49966    
         TOTAL TIME 6.93792E+08 1.15632E+07 1.92720E+05  8030.0      21.985    
1
1
                            STRESS PERIOD NO.   15, LENGTH =   182.5000    
                            -----------------------------------------------

                              NUMBER OF TIME STEPS =     1

                               MULTIPLIER FOR DELT =     1.000

                            INITIAL TIME STEP SIZE =   182.5000    

 REUSING NON-PARAMETER WELLS FROM LAST STRESS PERIOD

      1 WELL 

 SOLVING FOR HEAD 

 NO OUTPUT CONTROL FOR STRESS PERIOD   15   TIME STEP    1

 SAVING SATURATED THICKNESS AND FLOW TERMS ON UNIT   54 FOR MT3DMS
 BY THE LINK-MT3DMS PACKAGE V7 AT TIME STEP    1, STRESS PERIOD   15

1
  VOLUMETRIC BUDGET FOR ENTIRE MODEL AT END OF TIME STEP    1, STRESS PERIOD  15
  ------------------------------------------------------------------------------

     CUMULATIVE VOLUMES      L**3       RATES FOR THIS TIME STEP      L**3/T
     ------------------                 ------------------------

           IN:                                      IN:
           ---                                      ---
             STORAGE =           0.0000               STORAGE =           0.0000
       CONSTANT HEAD =    22080284.0000         CONSTANT HEAD =        2751.2017
               WELLS =      730000.0000                 WELLS =           0.0000

            TOTAL IN =    22810284.0000              TOTAL IN =        2751.2017

          OUT:                                     OUT:
          ----                                     ----
             STORAGE =           0.0000               STORAGE =           0.0000
       CONSTANT HEAD =    22810284.0000         CONSTANT HEAD =        2751.2017
               WELLS =           0.0000                 WELLS =           0.0000

           TOTAL OUT =    22810284.0000             TOTAL OUT =        2751.2017

            IN - OUT =           0.0000              IN - OUT =           0.0000

 PERCENT DISCREPANCY =           0.00     PERCENT DISCREPANCY =           0.00






         TIME SUMMARY AT END OF TIME STEP    1 IN STRESS PERIOD   15
                    SECONDS     MINUTES      HOURS       DAYS        YEARS
                    -----------------------------------------------------------
   TIME STEP LENGTH 1.57680E+07 2.62800E+05  4380.0      182.50     0.49966    
 STRESS PERIOD TIME 1.57680E+07 2.62800E+05  4380.0      182.50     0.49966    
         TOTAL TIME 7.09560E+08 1.18260E+07 1.97100E+05  8212.5      22.485    
1
1
                            STRESS PERIOD NO.   16, LENGTH =   182.5000    
                            -----------------------------------------------

                              NUMBER OF TIME STEPS =     1

                               MULTIPLIER FOR DELT =     1.000

                            INITIAL TIME STEP SIZE =   182.5000    

 REUSING NON-PARAMETER WELLS FROM LAST STRESS PERIOD

      1 WELL 

 SOLVING FOR HEAD 

 NO OUTPUT CONTROL FOR STRESS PERIOD   16   TIME STEP    1

 SAVING SATURATED THICKNESS AND FLOW TERMS ON UNIT   54 FOR MT3DMS
 BY THE LINK-MT3DMS PACKAGE V7 AT TIME STEP    1, STRESS PERIOD   16

1
  VOLUMETRIC BUDGET FOR ENTIRE MODEL AT END OF TIME STEP    1, STRESS PERIOD  16
  ------------------------------------------------------------------------------

     CUMULATIVE VOLUMES      L**3       RATES FOR THIS TIME STEP      L**3/T
     ------------------                 ------------------------

           IN:                                      IN:
           ---                                      ---
             STORAGE =           0.0000               STORAGE =           0.0000
       CONSTANT HEAD =    22582378.0000         CONSTANT HEAD =        2751.2017
               WELLS =      730000.0000                 WELLS =           0.0000

            TOTAL IN =    23312378.0000              TOTAL IN =        2751.2017

          OUT:                                     OUT:
          ----                                     ----
             STORAGE =           0.0000               STORAGE =           0.0000
       CONSTANT HEAD =    23312378.0000         CONSTANT HEAD =        2751.2017
               WELLS =           0.0000                 WELLS =           0.0000

           TOTAL OUT =    23312378.0000             TOTAL OUT =        2751.2017

            IN - OUT =           0.0000              IN - OUT =           0.0000

 PERCENT DISCREPANCY =           0.00     PERCENT DISCREPANCY =           0.00






         TIME SUMMARY AT END OF TIME STEP    1 IN STRESS PERIOD   16
                    SECONDS     MINUTES      HOURS       DAYS        YEARS
                    -----------------------------------------------------------
   TIME STEP LENGTH 1.57680E+07 2.62800E+05  4380.0      182.50     0.49966    
 STRESS PERIOD TIME 1.57680E+07 2.62800E+05  4380.0      182.50     0.49966    
         TOTAL TIME 7.25328E+08 1.20888E+07 2.01480E+05  8395.0      22.984    
1
1
                            STRESS PERIOD NO.   17, LENGTH =   182.5000    
                            -----------------------------------------------

                              NUMBER OF TIME STEPS =     1

                               MULTIPLIER FOR DELT =     1.000

                            INITIAL TIME STEP SIZE =   182.5000    

 REUSING NON-PARAMETER WELLS FROM LAST STRESS PERIOD

      1 WELL 

 SOLVING FOR HEAD 

 NO OUTPUT CONTROL FOR STRESS PERIOD   17   TIME STEP    1

 SAVING SATURATED THICKNESS AND FLOW TERMS ON UNIT   54 FOR MT3DMS
 BY THE LINK-MT3DMS PACKAGE V7 AT TIME STEP    1, STRESS PERIOD   17

1
  VOLUMETRIC BUDGET FOR ENTIRE MODEL AT END OF TIME STEP    1, STRESS PERIOD  17
  ------------------------------------------------------------------------------

     CUMULATIVE VOLUMES      L**3       RATES FOR THIS TIME STEP      L**3/T
     ------------------                 ------------------------

           IN:                                      IN:
           ---                                      ---
             STORAGE =           0.0000               STORAGE =           0.0000
       CONSTANT HEAD =    23084472.0000         CONSTANT HEAD =        2751.2017
               WELLS =      730000.0000                 WELLS =           0.0000

            TOTAL IN =    23814472.0000              TOTAL IN =        2751.2017

          OUT:                                     OUT:
          ----                                     ----
             STORAGE =           0.0000               STORAGE =           0.0000
       CONSTANT HEAD =    23814472.0000         CONSTANT HEAD =        2751.2017
               WELLS =           0.0000                 WELLS =           0.0000

           TOTAL OUT =    23814472.0000             TOTAL OUT =        2751.2017

            IN - OUT =           0.0000              IN - OUT =           0.0000

 PERCENT DISCREPANCY =           0.00     PERCENT DISCREPANCY =           0.00






         TIME SUMMARY AT END OF TIME STEP    1 IN STRESS PERIOD   17
                    SECONDS     MINUTES      HOURS       DAYS        YEARS
                    -----------------------------------------------------------
   TIME STEP LENGTH 1.57680E+07 2.62800E+05  4380.0      182.50     0.49966    
 STRESS PERIOD TIME 1.57680E+07 2.62800E+05  4380.0      182.50     0.49966    
         TOTAL TIME 7.41096E+08 1.23516E+07 2.05860E+05  8577.5      23.484    
1
1
                            STRESS PERIOD NO.   18, LENGTH =   182.5000    
                            -----------------------------------------------

                              NUMBER OF TIME STEPS =     1

                               MULTIPLIER FOR DELT =     1.000

                            INITIAL TIME STEP SIZE =   182.5000    

 REUSING NON-PARAMETER WELLS FROM LAST STRESS PERIOD

      1 WELL 

 SOLVING FOR HEAD 

 NO OUTPUT CONTROL FOR STRESS PERIOD   18   TIME STEP    1

 SAVING SATURATED THICKNESS AND FLOW TERMS ON UNIT   54 FOR MT3DMS
 BY THE LINK-MT3DMS PACKAGE V7 AT TIME STEP    1, STRESS PERIOD   18

1
  VOLUMETRIC BUDGET FOR ENTIRE MODEL AT END OF TIME STEP    1, STRESS PERIOD  18
  ------------------------------------------------------------------------------

     CUMULATIVE VOLUMES      L**3       RATES FOR THIS TIME STEP      L**3/T
     ------------------                 ------------------------

           IN:                                      IN:
           ---                                      ---
             STORAGE =           0.0000               STORAGE =           0.0000
       CONSTANT HEAD =    23586566.0000         CONSTANT HEAD =        2751.2017
               WELLS =      730000.0000                 WELLS =           0.0000

            TOTAL IN =    24316566.0000              TOTAL IN =        2751.2017

          OUT:                                     OUT:
          ----                                     ----
             STORAGE =           0.0000               STORAGE =           0.0000
       CONSTANT HEAD =    24316566.0000         CONSTANT HEAD =        2751.2017
               WELLS =           0.0000                 WELLS =           0.0000

           TOTAL OUT =    24316566.0000             TOTAL OUT =        2751.2017

            IN - OUT =           0.0000              IN - OUT =           0.0000

 PERCENT DISCREPANCY =           0.00     PERCENT DISCREPANCY =           0.00






         TIME SUMMARY AT END OF TIME STEP    1 IN STRESS PERIOD   18
                    SECONDS     MINUTES      HOURS       DAYS        YEARS
                    -----------------------------------------------------------
   TIME STEP LENGTH 1.57680E+07 2.62800E+05  4380.0      182.50     0.49966    
 STRESS PERIOD TIME 1.57680E+07 2.62800E+05  4380.0      182.50     0.49966    
         TOTAL TIME 7.56864E+08 1.26144E+07 2.10240E+05  8760.0      23.984    
1
1
                            STRESS PERIOD NO.   19, LENGTH =   182.5000    
                            -----------------------------------------------

                              NUMBER OF TIME STEPS =     1

                               MULTIPLIER FOR DELT =     1.000

                            INITIAL TIME STEP SIZE =   182.5000    

 REUSING NON-PARAMETER WELLS FROM LAST STRESS PERIOD

      1 WELL 

 SOLVING FOR HEAD 

 NO OUTPUT CONTROL FOR STRESS PERIOD   19   TIME STEP    1

 SAVING SATURATED THICKNESS AND FLOW TERMS ON UNIT   54 FOR MT3DMS
 BY THE LINK-MT3DMS PACKAGE V7 AT TIME STEP    1, STRESS PERIOD   19

1
  VOLUMETRIC BUDGET FOR ENTIRE MODEL AT END OF TIME STEP    1, STRESS PERIOD  19
  ------------------------------------------------------------------------------

     CUMULATIVE VOLUMES      L**3       RATES FOR THIS TIME STEP      L**3/T
     ------------------                 ------------------------

           IN:                                      IN:
           ---                                      ---
             STORAGE =           0.0000               STORAGE =           0.0000
       CONSTANT HEAD =    24088660.0000         CONSTANT HEAD =        2751.2017
               WELLS =      730000.0000                 WELLS =           0.0000

            TOTAL IN =    24818660.0000              TOTAL IN =        2751.2017

          OUT:                                     OUT:
          ----                                     ----
             STORAGE =           0.0000               STORAGE =           0.0000
       CONSTANT HEAD =    24818660.0000         CONSTANT HEAD =        2751.2017
               WELLS =           0.0000                 WELLS =           0.0000

           TOTAL OUT =    24818660.0000             TOTAL OUT =        2751.2017

            IN - OUT =           0.0000              IN - OUT =           0.0000

 PERCENT DISCREPANCY =           0.00     PERCENT DISCREPANCY =           0.00






         TIME SUMMARY AT END OF TIME STEP    1 IN STRESS PERIOD   19
                    SECONDS     MINUTES      HOURS       DAYS        YEARS
                    -----------------------------------------------------------
   TIME STEP LENGTH 1.57680E+07 2.62800E+05  4380.0      182.50     0.49966    
 STRESS PERIOD TIME 1.57680E+07 2.62800E+05  4380.0      182.50     0.49966    
         TOTAL TIME 7.72632E+08 1.28772E+07 2.14620E+05  8942.5      24.483    
1
1
                            STRESS PERIOD NO.   20, LENGTH =   182.5000    
                            -----------------------------------------------

                              NUMBER OF TIME STEPS =     1

                               MULTIPLIER FOR DELT =     1.000

                            INITIAL TIME STEP SIZE =   182.5000    

 REUSING NON-PARAMETER WELLS FROM LAST STRESS PERIOD

      1 WELL 

 SOLVING FOR HEAD 

 NO OUTPUT CONTROL FOR STRESS PERIOD   20   TIME STEP    1

 SAVING SATURATED THICKNESS AND FLOW TERMS ON UNIT   54 FOR MT3DMS
 BY THE LINK-MT3DMS PACKAGE V7 AT TIME STEP    1, STRESS PERIOD   20

1
  VOLUMETRIC BUDGET FOR ENTIRE MODEL AT END OF TIME STEP    1, STRESS PERIOD  20
  ------------------------------------------------------------------------------

     CUMULATIVE VOLUMES      L**3       RATES FOR THIS TIME STEP      L**3/T
     ------------------                 ------------------------

           IN:                                      IN:
           ---                                      ---
             STORAGE =           0.0000               STORAGE =           0.0000
       CONSTANT HEAD =    24590754.0000         CONSTANT HEAD =        2751.2017
               WELLS =      730000.0000                 WELLS =           0.0000

            TOTAL IN =    25320754.0000              TOTAL IN =        2751.2017

          OUT:                                     OUT:
          ----                                     ----
             STORAGE =           0.0000               STORAGE =           0.0000
       CONSTANT HEAD =    25320754.0000         CONSTANT HEAD =        2751.2017
               WELLS =           0.0000                 WELLS =           0.0000

           TOTAL OUT =    25320754.0000             TOTAL OUT =        2751.2017

            IN - OUT =           0.0000              IN - OUT =           0.0000

 PERCENT DISCREPANCY =           0.00     PERCENT DISCREPANCY =           0.00






         TIME SUMMARY AT END OF TIME STEP    1 IN STRESS PERIOD   20
                    SECONDS     MINUTES      HOURS       DAYS        YEARS
                    -----------------------------------------------------------
   TIME STEP LENGTH 1.57680E+07 2.62800E+05  4380.0      182.50     0.49966    
 STRESS PERIOD TIME 1.57680E+07 2.62800E+05  4380.0      182.50     0.49966    
         TOTAL TIME 7.88400E+08 1.31400E+07 2.19000E+05  9125.0      24.983    
1
1
                            STRESS PERIOD NO.   21, LENGTH =   182.5000    
                            -----------------------------------------------

                              NUMBER OF TIME STEPS =     1

                               MULTIPLIER FOR DELT =     1.000

                            INITIAL TIME STEP SIZE =   182.5000    

 REUSING NON-PARAMETER WELLS FROM LAST STRESS PERIOD

      1 WELL 

 SOLVING FOR HEAD 

 NO OUTPUT CONTROL FOR STRESS PERIOD   21   TIME STEP    1

 SAVING SATURATED THICKNESS AND FLOW TERMS ON UNIT   54 FOR MT3DMS
 BY THE LINK-MT3DMS PACKAGE V7 AT TIME STEP    1, STRESS PERIOD   21

1
  VOLUMETRIC BUDGET FOR ENTIRE MODEL AT END OF TIME STEP    1, STRESS PERIOD  21
  ------------------------------------------------------------------------------

     CUMULATIVE VOLUMES      L**3       RATES FOR THIS TIME STEP      L**3/T
     ------------------                 ------------------------

           IN:                                      IN:
           ---                                      ---
             STORAGE =           0.0000               STORAGE =           0.0000
       CONSTANT HEAD =    25092848.0000         CONSTANT HEAD =        2751.2017
               WELLS =      730000.0000                 WELLS =           0.0000

            TOTAL IN =    25822848.0000              TOTAL IN =        2751.2017

          OUT:                                     OUT:
          ----                                     ----
             STORAGE =           0.0000               STORAGE =           0.0000
       CONSTANT HEAD =    25822848.0000         CONSTANT HEAD =        2751.2017
               WELLS =           0.0000                 WELLS =           0.0000

           TOTAL OUT =    25822848.0000             TOTAL OUT =        2751.2017

            IN - OUT =           0.0000              IN - OUT =           0.0000

 PERCENT DISCREPANCY =           0.00     PERCENT DISCREPANCY =           0.00






         TIME SUMMARY AT END OF TIME STEP    1 IN STRESS PERIOD   21
                    SECONDS     MINUTES      HOURS       DAYS        YEARS
                    -----------------------------------------------------------
   TIME STEP LENGTH 1.57680E+07 2.62800E+05  4380.0      182.50     0.49966    
 STRESS PERIOD TIME 1.57680E+07 2.62800E+05  4380.0      182.50     0.49966    
         TOTAL TIME 8.04168E+08 1.34028E+07 2.23380E+05  9307.5      25.483    
1
1
                            STRESS PERIOD NO.   22, LENGTH =   182.5000    
                            -----------------------------------------------

                              NUMBER OF TIME STEPS =     1

                               MULTIPLIER FOR DELT =     1.000

                            INITIAL TIME STEP SIZE =   182.5000    

 REUSING NON-PARAMETER WELLS FROM LAST STRESS PERIOD

      1 WELL 

 SOLVING FOR HEAD 

 NO OUTPUT CONTROL FOR STRESS PERIOD   22   TIME STEP    1

 SAVING SATURATED THICKNESS AND FLOW TERMS ON UNIT   54 FOR MT3DMS
 BY THE LINK-MT3DMS PACKAGE V7 AT TIME STEP    1, STRESS PERIOD   22

1
  VOLUMETRIC BUDGET FOR ENTIRE MODEL AT END OF TIME STEP    1, STRESS PERIOD  22
  ------------------------------------------------------------------------------

     CUMULATIVE VOLUMES      L**3       RATES FOR THIS TIME STEP      L**3/T
     ------------------                 ------------------------

           IN:                                      IN:
           ---                                      ---
             STORAGE =           0.0000               STORAGE =           0.0000
       CONSTANT HEAD =    25594942.0000         CONSTANT HEAD =        2751.2017
               WELLS =      730000.0000                 WELLS =           0.0000

            TOTAL IN =    26324942.0000              TOTAL IN =        2751.2017

          OUT:                                     OUT:
          ----                                     ----
             STORAGE =           0.0000               STORAGE =           0.0000
       CONSTANT HEAD =    26324942.0000         CONSTANT HEAD =        2751.2017
               WELLS =           0.0000                 WELLS =           0.0000

           TOTAL OUT =    26324942.0000             TOTAL OUT =        2751.2017

            IN - OUT =           0.0000              IN - OUT =           0.0000

 PERCENT DISCREPANCY =           0.00     PERCENT DISCREPANCY =           0.00






         TIME SUMMARY AT END OF TIME STEP    1 IN STRESS PERIOD   22
                    SECONDS     MINUTES      HOURS       DAYS        YEARS
                    -----------------------------------------------------------
   TIME STEP LENGTH 1.57680E+07 2.62800E+05  4380.0      182.50     0.49966    
 STRESS PERIOD TIME 1.57680E+07 2.62800E+05  4380.0      182.50     0.49966    
         TOTAL TIME 8.19936E+08 1.36656E+07 2.27760E+05  9490.0      25.982    
1
1
                            STRESS PERIOD NO.   23, LENGTH =   182.5000    
                            -----------------------------------------------

                              NUMBER OF TIME STEPS =     1

                               MULTIPLIER FOR DELT =     1.000

                            INITIAL TIME STEP SIZE =   182.5000    

 REUSING NON-PARAMETER WELLS FROM LAST STRESS PERIOD

      1 WELL 

 SOLVING FOR HEAD 

 NO OUTPUT CONTROL FOR STRESS PERIOD   23   TIME STEP    1

 SAVING SATURATED THICKNESS AND FLOW TERMS ON UNIT   54 FOR MT3DMS
 BY THE LINK-MT3DMS PACKAGE V7 AT TIME STEP    1, STRESS PERIOD   23

1
  VOLUMETRIC BUDGET FOR ENTIRE MODEL AT END OF TIME STEP    1, STRESS PERIOD  23
  ------------------------------------------------------------------------------

     CUMULATIVE VOLUMES      L**3       RATES FOR THIS TIME STEP      L**3/T
     ------------------                 ------------------------

           IN:                                      IN:
           ---                                      ---
             STORAGE =           0.0000               STORAGE =           0.0000
       CONSTANT HEAD =    26097036.0000         CONSTANT HEAD =        2751.2017
               WELLS =      730000.0000                 WELLS =           0.0000

            TOTAL IN =    26827036.0000              TOTAL IN =        2751.2017

          OUT:                                     OUT:
          ----                                     ----
             STORAGE =           0.0000               STORAGE =           0.0000
       CONSTANT HEAD =    26827036.0000         CONSTANT HEAD =        2751.2017
               WELLS =           0.0000                 WELLS =           0.0000

           TOTAL OUT =    26827036.0000             TOTAL OUT =        2751.2017

            IN - OUT =           0.0000              IN - OUT =           0.0000

 PERCENT DISCREPANCY =           0.00     PERCENT DISCREPANCY =           0.00






         TIME SUMMARY AT END OF TIME STEP    1 IN STRESS PERIOD   23
                    SECONDS     MINUTES      HOURS       DAYS        YEARS
                    -----------------------------------------------------------
   TIME STEP LENGTH 1.57680E+07 2.62800E+05  4380.0      182.50     0.49966    
 STRESS PERIOD TIME 1.57680E+07 2.62800E+05  4380.0      182.50     0.49966    
         TOTAL TIME 8.35704E+08 1.39284E+07 2.32140E+05  9672.5      26.482    
1
1
                            STRESS PERIOD NO.   24, LENGTH =   182.5000    
                            -----------------------------------------------

                              NUMBER OF TIME STEPS =     1

                               MULTIPLIER FOR DELT =     1.000

                            INITIAL TIME STEP SIZE =   182.5000    

 REUSING NON-PARAMETER WELLS FROM LAST STRESS PERIOD

      1 WELL 

 SOLVING FOR HEAD 

 NO OUTPUT CONTROL FOR STRESS PERIOD   24   TIME STEP    1

 SAVING SATURATED THICKNESS AND FLOW TERMS ON UNIT   54 FOR MT3DMS
 BY THE LINK-MT3DMS PACKAGE V7 AT TIME STEP    1, STRESS PERIOD   24

1
  VOLUMETRIC BUDGET FOR ENTIRE MODEL AT END OF TIME STEP    1, STRESS PERIOD  24
  ------------------------------------------------------------------------------

     CUMULATIVE VOLUMES      L**3       RATES FOR THIS TIME STEP      L**3/T
     ------------------                 ------------------------

           IN:                                      IN:
           ---                                      ---
             STORAGE =           0.0000               STORAGE =           0.0000
       CONSTANT HEAD =    26599130.0000         CONSTANT HEAD =        2751.2017
               WELLS =      730000.0000                 WELLS =           0.0000

            TOTAL IN =    27329130.0000              TOTAL IN =        2751.2017

          OUT:                                     OUT:
          ----                                     ----
             STORAGE =           0.0000               STORAGE =           0.0000
       CONSTANT HEAD =    27329130.0000         CONSTANT HEAD =        2751.2017
               WELLS =           0.0000                 WELLS =           0.0000

           TOTAL OUT =    27329130.0000             TOTAL OUT =        2751.2017

            IN - OUT =           0.0000              IN - OUT =           0.0000

 PERCENT DISCREPANCY =           0.00     PERCENT DISCREPANCY =           0.00






         TIME SUMMARY AT END OF TIME STEP    1 IN STRESS PERIOD   24
                    SECONDS     MINUTES      HOURS       DAYS        YEARS
                    -----------------------------------------------------------
   TIME STEP LENGTH 1.57680E+07 2.62800E+05  4380.0      182.50     0.49966    
 STRESS PERIOD TIME 1.57680E+07 2.62800E+05  4380.0      182.50     0.49966    
         TOTAL TIME 8.51472E+08 1.41912E+07 2.36520E+05  9855.0      26.982    
1
1
                            STRESS PERIOD NO.   25, LENGTH =   182.5000    
                            -----------------------------------------------

                              NUMBER OF TIME STEPS =     1

                               MULTIPLIER FOR DELT =     1.000

                            INITIAL TIME STEP SIZE =   182.5000    

 REUSING NON-PARAMETER WELLS FROM LAST STRESS PERIOD

      1 WELL 

 SOLVING FOR HEAD 

 NO OUTPUT CONTROL FOR STRESS PERIOD   25   TIME STEP    1

 SAVING SATURATED THICKNESS AND FLOW TERMS ON UNIT   54 FOR MT3DMS
 BY THE LINK-MT3DMS PACKAGE V7 AT TIME STEP    1, STRESS PERIOD   25

1
  VOLUMETRIC BUDGET FOR ENTIRE MODEL AT END OF TIME STEP    1, STRESS PERIOD  25
  ------------------------------------------------------------------------------

     CUMULATIVE VOLUMES      L**3       RATES FOR THIS TIME STEP      L**3/T
     ------------------                 ------------------------

           IN:                                      IN:
           ---                                      ---
             STORAGE =           0.0000               STORAGE =           0.0000
       CONSTANT HEAD =    27101224.0000         CONSTANT HEAD =        2751.2017
               WELLS =      730000.0000                 WELLS =           0.0000

            TOTAL IN =    27831224.0000              TOTAL IN =        2751.2017

          OUT:                                     OUT:
          ----                                     ----
             STORAGE =           0.0000               STORAGE =           0.0000
       CONSTANT HEAD =    27831224.0000         CONSTANT HEAD =        2751.2017
               WELLS =           0.0000                 WELLS =           0.0000

           TOTAL OUT =    27831224.0000             TOTAL OUT =        2751.2017

            IN - OUT =           0.0000              IN - OUT =           0.0000

 PERCENT DISCREPANCY =           0.00     PERCENT DISCREPANCY =           0.00






         TIME SUMMARY AT END OF TIME STEP    1 IN STRESS PERIOD   25
                    SECONDS     MINUTES      HOURS       DAYS        YEARS
                    -----------------------------------------------------------
   TIME STEP LENGTH 1.57680E+07 2.62800E+05  4380.0      182.50     0.49966    
 STRESS PERIOD TIME 1.57680E+07 2.62800E+05  4380.0      182.50     0.49966    
         TOTAL TIME 8.67240E+08 1.44540E+07 2.40900E+05  10038.      27.481    
1
1
                            STRESS PERIOD NO.   26, LENGTH =   182.5000    
                            -----------------------------------------------

                              NUMBER OF TIME STEPS =     1

                               MULTIPLIER FOR DELT =     1.000

                            INITIAL TIME STEP SIZE =   182.5000    

 REUSING NON-PARAMETER WELLS FROM LAST STRESS PERIOD

      1 WELL 

 SOLVING FOR HEAD 

 NO OUTPUT CONTROL FOR STRESS PERIOD   26   TIME STEP    1

 SAVING SATURATED THICKNESS AND FLOW TERMS ON UNIT   54 FOR MT3DMS
 BY THE LINK-MT3DMS PACKAGE V7 AT TIME STEP    1, STRESS PERIOD   26

1
  VOLUMETRIC BUDGET FOR ENTIRE MODEL AT END OF TIME STEP    1, STRESS PERIOD  26
  ------------------------------------------------------------------------------

     CUMULATIVE VOLUMES      L**3       RATES FOR THIS TIME STEP      L**3/T
     ------------------                 ------------------------

           IN:                                      IN:
           ---                                      ---
             STORAGE =           0.0000               STORAGE =           0.0000
       CONSTANT HEAD =    27603318.0000         CONSTANT HEAD =        2751.2017
               WELLS =      730000.0000                 WELLS =           0.0000

            TOTAL IN =    28333318.0000              TOTAL IN =        2751.2017

          OUT:                                     OUT:
          ----                                     ----
             STORAGE =           0.0000               STORAGE =           0.0000
       CONSTANT HEAD =    28333318.0000         CONSTANT HEAD =        2751.2017
               WELLS =           0.0000                 WELLS =           0.0000

           TOTAL OUT =    28333318.0000             TOTAL OUT =        2751.2017

            IN - OUT =           0.0000              IN - OUT =           0.0000

 PERCENT DISCREPANCY =           0.00     PERCENT DISCREPANCY =           0.00






         TIME SUMMARY AT END OF TIME STEP    1 IN STRESS PERIOD   26
                    SECONDS     MINUTES      HOURS       DAYS        YEARS
                    -----------------------------------------------------------
   TIME STEP LENGTH 1.57680E+07 2.62800E+05  4380.0      182.50     0.49966    
 STRESS PERIOD TIME 1.57680E+07 2.62800E+05  4380.0      182.50     0.49966    
         TOTAL TIME 8.83008E+08 1.47168E+07 2.45280E+05  10220.      27.981    
1
1
                            STRESS PERIOD NO.   27, LENGTH =   182.5000    
                            -----------------------------------------------

                              NUMBER OF TIME STEPS =     1

                               MULTIPLIER FOR DELT =     1.000

                            INITIAL TIME STEP SIZE =   182.5000    

 REUSING NON-PARAMETER WELLS FROM LAST STRESS PERIOD

      1 WELL 

 SOLVING FOR HEAD 

 NO OUTPUT CONTROL FOR STRESS PERIOD   27   TIME STEP    1

 SAVING SATURATED THICKNESS AND FLOW TERMS ON UNIT   54 FOR MT3DMS
 BY THE LINK-MT3DMS PACKAGE V7 AT TIME STEP    1, STRESS PERIOD   27

1
  VOLUMETRIC BUDGET FOR ENTIRE MODEL AT END OF TIME STEP    1, STRESS PERIOD  27
  ------------------------------------------------------------------------------

     CUMULATIVE VOLUMES      L**3       RATES FOR THIS TIME STEP      L**3/T
     ------------------                 ------------------------

           IN:                                      IN:
           ---                                      ---
             STORAGE =           0.0000               STORAGE =           0.0000
       CONSTANT HEAD =    28105412.0000         CONSTANT HEAD =        2751.2017
               WELLS =      730000.0000                 WELLS =           0.0000

            TOTAL IN =    28835412.0000              TOTAL IN =        2751.2017

          OUT:                                     OUT:
          ----                                     ----
             STORAGE =           0.0000               STORAGE =           0.0000
       CONSTANT HEAD =    28835412.0000         CONSTANT HEAD =        2751.2017
               WELLS =           0.0000                 WELLS =           0.0000

           TOTAL OUT =    28835412.0000             TOTAL OUT =        2751.2017

            IN - OUT =           0.0000              IN - OUT =           0.0000

 PERCENT DISCREPANCY =           0.00     PERCENT DISCREPANCY =           0.00






         TIME SUMMARY AT END OF TIME STEP    1 IN STRESS PERIOD   27
                    SECONDS     MINUTES      HOURS       DAYS        YEARS
                    -----------------------------------------------------------
   TIME STEP LENGTH 1.57680E+07 2.62800E+05  4380.0      182.50     0.49966    
 STRESS PERIOD TIME 1.57680E+07 2.62800E+05  4380.0      182.50     0.49966    
         TOTAL TIME 8.98776E+08 1.49796E+07 2.49660E+05  10402.      28.480    
1
1
                            STRESS PERIOD NO.   28, LENGTH =   182.5000    
                            -----------------------------------------------

                              NUMBER OF TIME STEPS =     1

                               MULTIPLIER FOR DELT =     1.000

                            INITIAL TIME STEP SIZE =   182.5000    

 REUSING NON-PARAMETER WELLS FROM LAST STRESS PERIOD

      1 WELL 

 SOLVING FOR HEAD 

 NO OUTPUT CONTROL FOR STRESS PERIOD   28   TIME STEP    1

 SAVING SATURATED THICKNESS AND FLOW TERMS ON UNIT   54 FOR MT3DMS
 BY THE LINK-MT3DMS PACKAGE V7 AT TIME STEP    1, STRESS PERIOD   28

1
  VOLUMETRIC BUDGET FOR ENTIRE MODEL AT END OF TIME STEP    1, STRESS PERIOD  28
  ------------------------------------------------------------------------------

     CUMULATIVE VOLUMES      L**3       RATES FOR THIS TIME STEP      L**3/T
     ------------------                 ------------------------

           IN:                                      IN:
           ---                                      ---
             STORAGE =           0.0000               STORAGE =           0.0000
       CONSTANT HEAD =    28607506.0000         CONSTANT HEAD =        2751.2017
               WELLS =      730000.0000                 WELLS =           0.0000

            TOTAL IN =    29337506.0000              TOTAL IN =        2751.2017

          OUT:                                     OUT:
          ----                                     ----
             STORAGE =           0.0000               STORAGE =           0.0000
       CONSTANT HEAD =    29337506.0000         CONSTANT HEAD =        2751.2017
               WELLS =           0.0000                 WELLS =           0.0000

           TOTAL OUT =    29337506.0000             TOTAL OUT =        2751.2017

            IN - OUT =           0.0000              IN - OUT =           0.0000

 PERCENT DISCREPANCY =           0.00     PERCENT DISCREPANCY =           0.00






         TIME SUMMARY AT END OF TIME STEP    1 IN STRESS PERIOD   28
                    SECONDS     MINUTES      HOURS       DAYS        YEARS
                    -----------------------------------------------------------
   TIME STEP LENGTH 1.57680E+07 2.62800E+05  4380.0      182.50     0.49966    
 STRESS PERIOD TIME 1.57680E+07 2.62800E+05  4380.0      182.50     0.49966    
         TOTAL TIME 9.14544E+08 1.52424E+07 2.54040E+05  10585.      28.980    
1
1
                            STRESS PERIOD NO.   29, LENGTH =   182.5000    
                            -----------------------------------------------

                              NUMBER OF TIME STEPS =     1

                               MULTIPLIER FOR DELT =     1.000

                            INITIAL TIME STEP SIZE =   182.5000    

 REUSING NON-PARAMETER WELLS FROM LAST STRESS PERIOD

      1 WELL 

 SOLVING FOR HEAD 

 NO OUTPUT CONTROL FOR STRESS PERIOD   29   TIME STEP    1

 SAVING SATURATED THICKNESS AND FLOW TERMS ON UNIT   54 FOR MT3DMS
 BY THE LINK-MT3DMS PACKAGE V7 AT TIME STEP    1, STRESS PERIOD   29

1
  VOLUMETRIC BUDGET FOR ENTIRE MODEL AT END OF TIME STEP    1, STRESS PERIOD  29
  ------------------------------------------------------------------------------

     CUMULATIVE VOLUMES      L**3       RATES FOR THIS TIME STEP      L**3/T
     ------------------                 ------------------------

           IN:                                      IN:
           ---                                      ---
             STORAGE =           0.0000               STORAGE =           0.0000
       CONSTANT HEAD =    29109600.0000         CONSTANT HEAD =        2751.2017
               WELLS =      730000.0000                 WELLS =           0.0000

            TOTAL IN =    29839600.0000              TOTAL IN =        2751.2017

          OUT:                                     OUT:
          ----                                     ----
             STORAGE =           0.0000               STORAGE =           0.0000
       CONSTANT HEAD =    29839600.0000         CONSTANT HEAD =        2751.2017
               WELLS =           0.0000                 WELLS =           0.0000

           TOTAL OUT =    29839600.0000             TOTAL OUT =        2751.2017

            IN - OUT =           0.0000              IN - OUT =           0.0000

 PERCENT DISCREPANCY =           0.00     PERCENT DISCREPANCY =           0.00






         TIME SUMMARY AT END OF TIME STEP    1 IN STRESS PERIOD   29
                    SECONDS     MINUTES      HOURS       DAYS        YEARS
                    -----------------------------------------------------------
   TIME STEP LENGTH 1.57680E+07 2.62800E+05  4380.0      182.50     0.49966    
 STRESS PERIOD TIME 1.57680E+07 2.62800E+05  4380.0      182.50     0.49966    
         TOTAL TIME 9.30312E+08 1.55052E+07 2.58420E+05  10768.      29.480    
1
1
                            STRESS PERIOD NO.   30, LENGTH =   182.5000    
                            -----------------------------------------------

                              NUMBER OF TIME STEPS =     1

                               MULTIPLIER FOR DELT =     1.000

                            INITIAL TIME STEP SIZE =   182.5000    

 REUSING NON-PARAMETER WELLS FROM LAST STRESS PERIOD

      1 WELL 

 SOLVING FOR HEAD 

 NO OUTPUT CONTROL FOR STRESS PERIOD   30   TIME STEP    1

 SAVING SATURATED THICKNESS AND FLOW TERMS ON UNIT   54 FOR MT3DMS
 BY THE LINK-MT3DMS PACKAGE V7 AT TIME STEP    1, STRESS PERIOD   30

1
  VOLUMETRIC BUDGET FOR ENTIRE MODEL AT END OF TIME STEP    1, STRESS PERIOD  30
  ------------------------------------------------------------------------------

     CUMULATIVE VOLUMES      L**3       RATES FOR THIS TIME STEP      L**3/T
     ------------------                 ------------------------

           IN:                                      IN:
           ---                                      ---
             STORAGE =           0.0000               STORAGE =           0.0000
       CONSTANT HEAD =    29611694.0000         CONSTANT HEAD =        2751.2017
               WELLS =      730000.0000                 WELLS =           0.0000

            TOTAL IN =    30341694.0000              TOTAL IN =        2751.2017

          OUT:                                     OUT:
          ----                                     ----
             STORAGE =           0.0000               STORAGE =           0.0000
       CONSTANT HEAD =    30341694.0000         CONSTANT HEAD =        2751.2017
               WELLS =           0.0000                 WELLS =           0.0000

           TOTAL OUT =    30341694.0000             TOTAL OUT =        2751.2017

            IN - OUT =           0.0000              IN - OUT =           0.0000

 PERCENT DISCREPANCY =           0.00     PERCENT DISCREPANCY =           0.00






         TIME SUMMARY AT END OF TIME STEP    1 IN STRESS PERIOD   30
                    SECONDS     MINUTES      HOURS       DAYS        YEARS
                    -----------------------------------------------------------
   TIME STEP LENGTH 1.57680E+07 2.62800E+05  4380.0      182.50     0.49966    
 STRESS PERIOD TIME 1.57680E+07 2.62800E+05  4380.0      182.50     0.49966    
         TOTAL TIME 9.46080E+08 1.57680E+07 2.62800E+05  10950.      29.979    
1
1
                            STRESS PERIOD NO.   31, LENGTH =   182.5000    
                            -----------------------------------------------

                              NUMBER OF TIME STEPS =     1

                               MULTIPLIER FOR DELT =     1.000

                            INITIAL TIME STEP SIZE =   182.5000    

 REUSING NON-PARAMETER WELLS FROM LAST STRESS PERIOD

      1 WELL 

 SOLVING FOR HEAD 

 NO OUTPUT CONTROL FOR STRESS PERIOD   31   TIME STEP    1

 SAVING SATURATED THICKNESS AND FLOW TERMS ON UNIT   54 FOR MT3DMS
 BY THE LINK-MT3DMS PACKAGE V7 AT TIME STEP    1, STRESS PERIOD   31

1
  VOLUMETRIC BUDGET FOR ENTIRE MODEL AT END OF TIME STEP    1, STRESS PERIOD  31
  ------------------------------------------------------------------------------

     CUMULATIVE VOLUMES      L**3       RATES FOR THIS TIME STEP      L**3/T
     ------------------                 ------------------------

           IN:                                      IN:
           ---                                      ---
             STORAGE =           0.0000               STORAGE =           0.0000
       CONSTANT HEAD =    30113788.0000         CONSTANT HEAD =        2751.2017
               WELLS =      730000.0000                 WELLS =           0.0000

            TOTAL IN =    30843788.0000              TOTAL IN =        2751.2017

          OUT:                                     OUT:
          ----                                     ----
             STORAGE =           0.0000               STORAGE =           0.0000
       CONSTANT HEAD =    30843788.0000         CONSTANT HEAD =        2751.2017
               WELLS =           0.0000                 WELLS =           0.0000

           TOTAL OUT =    30843788.0000             TOTAL OUT =        2751.2017

            IN - OUT =           0.0000              IN - OUT =           0.0000

 PERCENT DISCREPANCY =           0.00     PERCENT DISCREPANCY =           0.00






         TIME SUMMARY AT END OF TIME STEP    1 IN STRESS PERIOD   31
                    SECONDS     MINUTES      HOURS       DAYS        YEARS
                    -----------------------------------------------------------
   TIME STEP LENGTH 1.57680E+07 2.62800E+05  4380.0      182.50     0.49966    
 STRESS PERIOD TIME 1.57680E+07 2.62800E+05  4380.0      182.50     0.49966    
         TOTAL TIME 9.61848E+08 1.60308E+07 2.67180E+05  11132.      30.479    
1
1
                            STRESS PERIOD NO.   32, LENGTH =   182.5000    
                            -----------------------------------------------

                              NUMBER OF TIME STEPS =     1

                               MULTIPLIER FOR DELT =     1.000

                            INITIAL TIME STEP SIZE =   182.5000    

 REUSING NON-PARAMETER WELLS FROM LAST STRESS PERIOD

      1 WELL 

 SOLVING FOR HEAD 

 NO OUTPUT CONTROL FOR STRESS PERIOD   32   TIME STEP    1

 SAVING SATURATED THICKNESS AND FLOW TERMS ON UNIT   54 FOR MT3DMS
 BY THE LINK-MT3DMS PACKAGE V7 AT TIME STEP    1, STRESS PERIOD   32

1
  VOLUMETRIC BUDGET FOR ENTIRE MODEL AT END OF TIME STEP    1, STRESS PERIOD  32
  ------------------------------------------------------------------------------

     CUMULATIVE VOLUMES      L**3       RATES FOR THIS TIME STEP      L**3/T
     ------------------                 ------------------------

           IN:                                      IN:
           ---                                      ---
             STORAGE =           0.0000               STORAGE =           0.0000
       CONSTANT HEAD =    30615882.0000         CONSTANT HEAD =        2751.2017
               WELLS =      730000.0000                 WELLS =           0.0000

            TOTAL IN =    31345882.0000              TOTAL IN =        2751.2017

          OUT:                                     OUT:
          ----                                     ----
             STORAGE =           0.0000               STORAGE =           0.0000
       CONSTANT HEAD =    31345882.0000         CONSTANT HEAD =        2751.2017
               WELLS =           0.0000                 WELLS =           0.0000

           TOTAL OUT =    31345882.0000             TOTAL OUT =        2751.2017

            IN - OUT =           0.0000              IN - OUT =           0.0000

 PERCENT DISCREPANCY =           0.00     PERCENT DISCREPANCY =           0.00






         TIME SUMMARY AT END OF TIME STEP    1 IN STRESS PERIOD   32
                    SECONDS     MINUTES      HOURS       DAYS        YEARS
                    -----------------------------------------------------------
   TIME STEP LENGTH 1.57680E+07 2.62800E+05  4380.0      182.50     0.49966    
 STRESS PERIOD TIME 1.57680E+07 2.62800E+05  4380.0      182.50     0.49966    
         TOTAL TIME 9.77616E+08 1.62936E+07 2.71560E+05  11315.      30.979    
1
1
                            STRESS PERIOD NO.   33, LENGTH =   182.5000    
                            -----------------------------------------------

                              NUMBER OF TIME STEPS =     1

                               MULTIPLIER FOR DELT =     1.000

                            INITIAL TIME STEP SIZE =   182.5000    

 REUSING NON-PARAMETER WELLS FROM LAST STRESS PERIOD

      1 WELL 

 SOLVING FOR HEAD 

 NO OUTPUT CONTROL FOR STRESS PERIOD   33   TIME STEP    1

 SAVING SATURATED THICKNESS AND FLOW TERMS ON UNIT   54 FOR MT3DMS
 BY THE LINK-MT3DMS PACKAGE V7 AT TIME STEP    1, STRESS PERIOD   33

1
  VOLUMETRIC BUDGET FOR ENTIRE MODEL AT END OF TIME STEP    1, STRESS PERIOD  33
  ------------------------------------------------------------------------------

     CUMULATIVE VOLUMES      L**3       RATES FOR THIS TIME STEP      L**3/T
     ------------------                 ------------------------

           IN:                                      IN:
           ---                                      ---
             STORAGE =           0.0000               STORAGE =           0.0000
       CONSTANT HEAD =    31117976.0000         CONSTANT HEAD =        2751.2017
               WELLS =      730000.0000                 WELLS =           0.0000

            TOTAL IN =    31847976.0000              TOTAL IN =        2751.2017

          OUT:                                     OUT:
          ----                                     ----
             STORAGE =           0.0000               STORAGE =           0.0000
       CONSTANT HEAD =    31847976.0000         CONSTANT HEAD =        2751.2017
               WELLS =           0.0000                 WELLS =           0.0000

           TOTAL OUT =    31847976.0000             TOTAL OUT =        2751.2017

            IN - OUT =           0.0000              IN - OUT =           0.0000

 PERCENT DISCREPANCY =           0.00     PERCENT DISCREPANCY =           0.00






         TIME SUMMARY AT END OF TIME STEP    1 IN STRESS PERIOD   33
                    SECONDS     MINUTES      HOURS       DAYS        YEARS
                    -----------------------------------------------------------
   TIME STEP LENGTH 1.57680E+07 2.62800E+05  4380.0      182.50     0.49966    
 STRESS PERIOD TIME 1.57680E+07 2.62800E+05  4380.0      182.50     0.49966    
         TOTAL TIME 9.93384E+08 1.65564E+07 2.75940E+05  11498.      31.478    
1
1
                            STRESS PERIOD NO.   34, LENGTH =   182.5000    
                            -----------------------------------------------

                              NUMBER OF TIME STEPS =     1

                               MULTIPLIER FOR DELT =     1.000

                            INITIAL TIME STEP SIZE =   182.5000    

 REUSING NON-PARAMETER WELLS FROM LAST STRESS PERIOD

      1 WELL 

 SOLVING FOR HEAD 

 NO OUTPUT CONTROL FOR STRESS PERIOD   34   TIME STEP    1

 SAVING SATURATED THICKNESS AND FLOW TERMS ON UNIT   54 FOR MT3DMS
 BY THE LINK-MT3DMS PACKAGE V7 AT TIME STEP    1, STRESS PERIOD   34

1
  VOLUMETRIC BUDGET FOR ENTIRE MODEL AT END OF TIME STEP    1, STRESS PERIOD  34
  ------------------------------------------------------------------------------

     CUMULATIVE VOLUMES      L**3       RATES FOR THIS TIME STEP      L**3/T
     ------------------                 ------------------------

           IN:                                      IN:
           ---                                      ---
             STORAGE =           0.0000               STORAGE =           0.0000
       CONSTANT HEAD =    31620070.0000         CONSTANT HEAD =        2751.2017
               WELLS =      730000.0000                 WELLS =           0.0000

            TOTAL IN =    32350070.0000              TOTAL IN =        2751.2017

          OUT:                                     OUT:
          ----                                     ----
             STORAGE =           0.0000               STORAGE =           0.0000
       CONSTANT HEAD =    32350070.0000         CONSTANT HEAD =        2751.2017
               WELLS =           0.0000                 WELLS =           0.0000

           TOTAL OUT =    32350070.0000             TOTAL OUT =        2751.2017

            IN - OUT =           0.0000              IN - OUT =           0.0000

 PERCENT DISCREPANCY =           0.00     PERCENT DISCREPANCY =           0.00






         TIME SUMMARY AT END OF TIME STEP    1 IN STRESS PERIOD   34
                    SECONDS     MINUTES      HOURS       DAYS        YEARS
                    -----------------------------------------------------------
   TIME STEP LENGTH 1.57680E+07 2.62800E+05  4380.0      182.50     0.49966    
 STRESS PERIOD TIME 1.57680E+07 2.62800E+05  4380.0      182.50     0.49966    
         TOTAL TIME 1.00915E+09 1.68192E+07 2.80320E+05  11680.      31.978    
1
1
                            STRESS PERIOD NO.   35, LENGTH =   182.5000    
                            -----------------------------------------------

                              NUMBER OF TIME STEPS =     1

                               MULTIPLIER FOR DELT =     1.000

                            INITIAL TIME STEP SIZE =   182.5000    

 REUSING NON-PARAMETER WELLS FROM LAST STRESS PERIOD

      1 WELL 

 SOLVING FOR HEAD 

 NO OUTPUT CONTROL FOR STRESS PERIOD   35   TIME STEP    1

 SAVING SATURATED THICKNESS AND FLOW TERMS ON UNIT   54 FOR MT3DMS
 BY THE LINK-MT3DMS PACKAGE V7 AT TIME STEP    1, STRESS PERIOD   35

1
  VOLUMETRIC BUDGET FOR ENTIRE MODEL AT END OF TIME STEP    1, STRESS PERIOD  35
  ------------------------------------------------------------------------------

     CUMULATIVE VOLUMES      L**3       RATES FOR THIS TIME STEP      L**3/T
     ------------------                 ------------------------

           IN:                                      IN:
           ---                                      ---
             STORAGE =           0.0000               STORAGE =           0.0000
       CONSTANT HEAD =    32122164.0000         CONSTANT HEAD =        2751.2017
               WELLS =      730000.0000                 WELLS =           0.0000

            TOTAL IN =    32852164.0000              TOTAL IN =        2751.2017

          OUT:                                     OUT:
          ----                                     ----
             STORAGE =           0.0000               STORAGE =           0.0000
       CONSTANT HEAD =    32852164.0000         CONSTANT HEAD =        2751.2017
               WELLS =           0.0000                 WELLS =           0.0000

           TOTAL OUT =    32852164.0000             TOTAL OUT =        2751.2017

            IN - OUT =           0.0000              IN - OUT =           0.0000

 PERCENT DISCREPANCY =           0.00     PERCENT DISCREPANCY =           0.00






         TIME SUMMARY AT END OF TIME STEP    1 IN STRESS PERIOD   35
                    SECONDS     MINUTES      HOURS       DAYS        YEARS
                    -----------------------------------------------------------
   TIME STEP LENGTH 1.57680E+07 2.62800E+05  4380.0      182.50     0.49966    
 STRESS PERIOD TIME 1.57680E+07 2.62800E+05  4380.0      182.50     0.49966    
         TOTAL TIME 1.02492E+09 1.70820E+07 2.84700E+05  11862.      32.478    
1
1
                            STRESS PERIOD NO.   36, LENGTH =   182.5000    
                            -----------------------------------------------

                              NUMBER OF TIME STEPS =     1

                               MULTIPLIER FOR DELT =     1.000

                            INITIAL TIME STEP SIZE =   182.5000    

 REUSING NON-PARAMETER WELLS FROM LAST STRESS PERIOD

      1 WELL 

 SOLVING FOR HEAD 

 NO OUTPUT CONTROL FOR STRESS PERIOD   36   TIME STEP    1

 SAVING SATURATED THICKNESS AND FLOW TERMS ON UNIT   54 FOR MT3DMS
 BY THE LINK-MT3DMS PACKAGE V7 AT TIME STEP    1, STRESS PERIOD   36

1
  VOLUMETRIC BUDGET FOR ENTIRE MODEL AT END OF TIME STEP    1, STRESS PERIOD  36
  ------------------------------------------------------------------------------

     CUMULATIVE VOLUMES      L**3       RATES FOR THIS TIME STEP      L**3/T
     ------------------                 ------------------------

           IN:                                      IN:
           ---                                      ---
             STORAGE =           0.0000               STORAGE =           0.0000
       CONSTANT HEAD =    32624258.0000         CONSTANT HEAD =        2751.2017
               WELLS =      730000.0000                 WELLS =           0.0000

            TOTAL IN =    33354258.0000              TOTAL IN =        2751.2017

          OUT:                                     OUT:
          ----                                     ----
             STORAGE =           0.0000               STORAGE =           0.0000
       CONSTANT HEAD =    33354258.0000         CONSTANT HEAD =        2751.2017
               WELLS =           0.0000                 WELLS =           0.0000

           TOTAL OUT =    33354258.0000             TOTAL OUT =        2751.2017

            IN - OUT =           0.0000              IN - OUT =           0.0000

 PERCENT DISCREPANCY =           0.00     PERCENT DISCREPANCY =           0.00






         TIME SUMMARY AT END OF TIME STEP    1 IN STRESS PERIOD   36
                    SECONDS     MINUTES      HOURS       DAYS        YEARS
                    -----------------------------------------------------------
   TIME STEP LENGTH 1.57680E+07 2.62800E+05  4380.0      182.50     0.49966    
 STRESS PERIOD TIME 1.57680E+07 2.62800E+05  4380.0      182.50     0.49966    
         TOTAL TIME 1.04069E+09 1.73448E+07 2.89080E+05  12045.      32.977    
1
1
                            STRESS PERIOD NO.   37, LENGTH =   182.5000    
                            -----------------------------------------------

                              NUMBER OF TIME STEPS =     1

                               MULTIPLIER FOR DELT =     1.000

                            INITIAL TIME STEP SIZE =   182.5000    

 REUSING NON-PARAMETER WELLS FROM LAST STRESS PERIOD

      1 WELL 

 SOLVING FOR HEAD 

 NO OUTPUT CONTROL FOR STRESS PERIOD   37   TIME STEP    1

 SAVING SATURATED THICKNESS AND FLOW TERMS ON UNIT   54 FOR MT3DMS
 BY THE LINK-MT3DMS PACKAGE V7 AT TIME STEP    1, STRESS PERIOD   37

1
  VOLUMETRIC BUDGET FOR ENTIRE MODEL AT END OF TIME STEP    1, STRESS PERIOD  37
  ------------------------------------------------------------------------------

     CUMULATIVE VOLUMES      L**3       RATES FOR THIS TIME STEP      L**3/T
     ------------------                 ------------------------

           IN:                                      IN:
           ---                                      ---
             STORAGE =           0.0000               STORAGE =           0.0000
       CONSTANT HEAD =    33126352.0000         CONSTANT HEAD =        2751.2017
               WELLS =      730000.0000                 WELLS =           0.0000

            TOTAL IN =    33856352.0000              TOTAL IN =        2751.2017

          OUT:                                     OUT:
          ----                                     ----
             STORAGE =           0.0000               STORAGE =           0.0000
       CONSTANT HEAD =    33856352.0000         CONSTANT HEAD =        2751.2017
               WELLS =           0.0000                 WELLS =           0.0000

           TOTAL OUT =    33856352.0000             TOTAL OUT =        2751.2017

            IN - OUT =           0.0000              IN - OUT =           0.0000

 PERCENT DISCREPANCY =           0.00     PERCENT DISCREPANCY =           0.00






         TIME SUMMARY AT END OF TIME STEP    1 IN STRESS PERIOD   37
                    SECONDS     MINUTES      HOURS       DAYS        YEARS
                    -----------------------------------------------------------
   TIME STEP LENGTH 1.57680E+07 2.62800E+05  4380.0      182.50     0.49966    
 STRESS PERIOD TIME 1.57680E+07 2.62800E+05  4380.0      182.50     0.49966    
         TOTAL TIME 1.05646E+09 1.76076E+07 2.93460E+05  12228.      33.477    
1
1
                            STRESS PERIOD NO.   38, LENGTH =   182.5000    
                            -----------------------------------------------

                              NUMBER OF TIME STEPS =     1

                               MULTIPLIER FOR DELT =     1.000

                            INITIAL TIME STEP SIZE =   182.5000    

 REUSING NON-PARAMETER WELLS FROM LAST STRESS PERIOD

      1 WELL 

 SOLVING FOR HEAD 

 NO OUTPUT CONTROL FOR STRESS PERIOD   38   TIME STEP    1

 SAVING SATURATED THICKNESS AND FLOW TERMS ON UNIT   54 FOR MT3DMS
 BY THE LINK-MT3DMS PACKAGE V7 AT TIME STEP    1, STRESS PERIOD   38

1
  VOLUMETRIC BUDGET FOR ENTIRE MODEL AT END OF TIME STEP    1, STRESS PERIOD  38
  ------------------------------------------------------------------------------

     CUMULATIVE VOLUMES      L**3       RATES FOR THIS TIME STEP      L**3/T
     ------------------                 ------------------------

           IN:                                      IN:
           ---                                      ---
             STORAGE =           0.0000               STORAGE =           0.0000
       CONSTANT HEAD =    33628448.0000         CONSTANT HEAD =        2751.2017
               WELLS =      730000.0000                 WELLS =           0.0000

            TOTAL IN =    34358448.0000              TOTAL IN =        2751.2017

          OUT:                                     OUT:
          ----                                     ----
             STORAGE =           0.0000               STORAGE =           0.0000
       CONSTANT HEAD =    34358448.0000         CONSTANT HEAD =        2751.2017
               WELLS =           0.0000                 WELLS =           0.0000

           TOTAL OUT =    34358448.0000             TOTAL OUT =        2751.2017

            IN - OUT =           0.0000              IN - OUT =           0.0000

 PERCENT DISCREPANCY =           0.00     PERCENT DISCREPANCY =           0.00






         TIME SUMMARY AT END OF TIME STEP    1 IN STRESS PERIOD   38
                    SECONDS     MINUTES      HOURS       DAYS        YEARS
                    -----------------------------------------------------------
   TIME STEP LENGTH 1.57680E+07 2.62800E+05  4380.0      182.50     0.49966    
 STRESS PERIOD TIME 1.57680E+07 2.62800E+05  4380.0      182.50     0.49966    
         TOTAL TIME 1.07222E+09 1.78704E+07 2.97840E+05  12410.      33.977    
1
1
                            STRESS PERIOD NO.   39, LENGTH =   182.5000    
                            -----------------------------------------------

                              NUMBER OF TIME STEPS =     1

                               MULTIPLIER FOR DELT =     1.000

                            INITIAL TIME STEP SIZE =   182.5000    

 REUSING NON-PARAMETER WELLS FROM LAST STRESS PERIOD

      1 WELL 

 SOLVING FOR HEAD 

 NO OUTPUT CONTROL FOR STRESS PERIOD   39   TIME STEP    1

 SAVING SATURATED THICKNESS AND FLOW TERMS ON UNIT   54 FOR MT3DMS
 BY THE LINK-MT3DMS PACKAGE V7 AT TIME STEP    1, STRESS PERIOD   39

1
  VOLUMETRIC BUDGET FOR ENTIRE MODEL AT END OF TIME STEP    1, STRESS PERIOD  39
  ------------------------------------------------------------------------------

     CUMULATIVE VOLUMES      L**3       RATES FOR THIS TIME STEP      L**3/T
     ------------------                 ------------------------

           IN:                                      IN:
           ---                                      ---
             STORAGE =           0.0000               STORAGE =           0.0000
       CONSTANT HEAD =    34130544.0000         CONSTANT HEAD =        2751.2017
               WELLS =      730000.0000                 WELLS =           0.0000

            TOTAL IN =    34860544.0000              TOTAL IN =        2751.2017

          OUT:                                     OUT:
          ----                                     ----
             STORAGE =           0.0000               STORAGE =           0.0000
       CONSTANT HEAD =    34860544.0000         CONSTANT HEAD =        2751.2017
               WELLS =           0.0000                 WELLS =           0.0000

           TOTAL OUT =    34860544.0000             TOTAL OUT =        2751.2017

            IN - OUT =           0.0000              IN - OUT =           0.0000

 PERCENT DISCREPANCY =           0.00     PERCENT DISCREPANCY =           0.00






         TIME SUMMARY AT END OF TIME STEP    1 IN STRESS PERIOD   39
                    SECONDS     MINUTES      HOURS       DAYS        YEARS
                    -----------------------------------------------------------
   TIME STEP LENGTH 1.57680E+07 2.62800E+05  4380.0      182.50     0.49966    
 STRESS PERIOD TIME 1.57680E+07 2.62800E+05  4380.0      182.50     0.49966    
         TOTAL TIME 1.08799E+09 1.81332E+07 3.02220E+05  12593.      34.476    
1
1
                            STRESS PERIOD NO.   40, LENGTH =   182.5000    
                            -----------------------------------------------

                              NUMBER OF TIME STEPS =     1

                               MULTIPLIER FOR DELT =     1.000

                            INITIAL TIME STEP SIZE =   182.5000    

 REUSING NON-PARAMETER WELLS FROM LAST STRESS PERIOD

      1 WELL 

 SOLVING FOR HEAD 

 NO OUTPUT CONTROL FOR STRESS PERIOD   40   TIME STEP    1

 SAVING SATURATED THICKNESS AND FLOW TERMS ON UNIT   54 FOR MT3DMS
 BY THE LINK-MT3DMS PACKAGE V7 AT TIME STEP    1, STRESS PERIOD   40

1
  VOLUMETRIC BUDGET FOR ENTIRE MODEL AT END OF TIME STEP    1, STRESS PERIOD  40
  ------------------------------------------------------------------------------

     CUMULATIVE VOLUMES      L**3       RATES FOR THIS TIME STEP      L**3/T
     ------------------                 ------------------------

           IN:                                      IN:
           ---                                      ---
             STORAGE =           0.0000               STORAGE =           0.0000
       CONSTANT HEAD =    34632640.0000         CONSTANT HEAD =        2751.2017
               WELLS =      730000.0000                 WELLS =           0.0000

            TOTAL IN =    35362640.0000              TOTAL IN =        2751.2017

          OUT:                                     OUT:
          ----                                     ----
             STORAGE =           0.0000               STORAGE =           0.0000
       CONSTANT HEAD =    35362640.0000         CONSTANT HEAD =        2751.2017
               WELLS =           0.0000                 WELLS =           0.0000

           TOTAL OUT =    35362640.0000             TOTAL OUT =        2751.2017

            IN - OUT =           0.0000              IN - OUT =           0.0000

 PERCENT DISCREPANCY =           0.00     PERCENT DISCREPANCY =           0.00






         TIME SUMMARY AT END OF TIME STEP    1 IN STRESS PERIOD   40
                    SECONDS     MINUTES      HOURS       DAYS        YEARS
                    -----------------------------------------------------------
   TIME STEP LENGTH 1.57680E+07 2.62800E+05  4380.0      182.50     0.49966    
 STRESS PERIOD TIME 1.57680E+07 2.62800E+05  4380.0      182.50     0.49966    
         TOTAL TIME 1.10376E+09 1.83960E+07 3.06600E+05  12775.      34.976    
1
1
                            STRESS PERIOD NO.   41, LENGTH =   182.5000    
                            -----------------------------------------------

                              NUMBER OF TIME STEPS =     1

                               MULTIPLIER FOR DELT =     1.000

                            INITIAL TIME STEP SIZE =   182.5000    

 REUSING NON-PARAMETER WELLS FROM LAST STRESS PERIOD

      1 WELL 

 SOLVING FOR HEAD 

 NO OUTPUT CONTROL FOR STRESS PERIOD   41   TIME STEP    1

 SAVING SATURATED THICKNESS AND FLOW TERMS ON UNIT   54 FOR MT3DMS
 BY THE LINK-MT3DMS PACKAGE V7 AT TIME STEP    1, STRESS PERIOD   41

1
  VOLUMETRIC BUDGET FOR ENTIRE MODEL AT END OF TIME STEP    1, STRESS PERIOD  41
  ------------------------------------------------------------------------------

     CUMULATIVE VOLUMES      L**3       RATES FOR THIS TIME STEP      L**3/T
     ------------------                 ------------------------

           IN:                                      IN:
           ---                                      ---
             STORAGE =           0.0000               STORAGE =           0.0000
       CONSTANT HEAD =    35134736.0000         CONSTANT HEAD =        2751.2017
               WELLS =      730000.0000                 WELLS =           0.0000

            TOTAL IN =    35864736.0000              TOTAL IN =        2751.2017

          OUT:                                     OUT:
          ----                                     ----
             STORAGE =           0.0000               STORAGE =           0.0000
       CONSTANT HEAD =    35864736.0000         CONSTANT HEAD =        2751.2017
               WELLS =           0.0000                 WELLS =           0.0000

           TOTAL OUT =    35864736.0000             TOTAL OUT =        2751.2017

            IN - OUT =           0.0000              IN - OUT =           0.0000

 PERCENT DISCREPANCY =           0.00     PERCENT DISCREPANCY =           0.00






         TIME SUMMARY AT END OF TIME STEP    1 IN STRESS PERIOD   41
                    SECONDS     MINUTES      HOURS       DAYS        YEARS
                    -----------------------------------------------------------
   TIME STEP LENGTH 1.57680E+07 2.62800E+05  4380.0      182.50     0.49966    
 STRESS PERIOD TIME 1.57680E+07 2.62800E+05  4380.0      182.50     0.49966    
         TOTAL TIME 1.11953E+09 1.86588E+07 3.10980E+05  12957.      35.476    
1
1
                            STRESS PERIOD NO.   42, LENGTH =   182.5000    
                            -----------------------------------------------

                              NUMBER OF TIME STEPS =     1

                               MULTIPLIER FOR DELT =     1.000

                            INITIAL TIME STEP SIZE =   182.5000    

 REUSING NON-PARAMETER WELLS FROM LAST STRESS PERIOD

      1 WELL 

 SOLVING FOR HEAD 

 NO OUTPUT CONTROL FOR STRESS PERIOD   42   TIME STEP    1

 SAVING SATURATED THICKNESS AND FLOW TERMS ON UNIT   54 FOR MT3DMS
 BY THE LINK-MT3DMS PACKAGE V7 AT TIME STEP    1, STRESS PERIOD   42

1
  VOLUMETRIC BUDGET FOR ENTIRE MODEL AT END OF TIME STEP    1, STRESS PERIOD  42
  ------------------------------------------------------------------------------

     CUMULATIVE VOLUMES      L**3       RATES FOR THIS TIME STEP      L**3/T
     ------------------                 ------------------------

           IN:                                      IN:
           ---                                      ---
             STORAGE =           0.0000               STORAGE =           0.0000
       CONSTANT HEAD =    35636832.0000         CONSTANT HEAD =        2751.2017
               WELLS =      730000.0000                 WELLS =           0.0000

            TOTAL IN =    36366832.0000              TOTAL IN =        2751.2017

          OUT:                                     OUT:
          ----                                     ----
             STORAGE =           0.0000               STORAGE =           0.0000
       CONSTANT HEAD =    36366832.0000         CONSTANT HEAD =        2751.2017
               WELLS =           0.0000                 WELLS =           0.0000

           TOTAL OUT =    36366832.0000             TOTAL OUT =        2751.2017

            IN - OUT =           0.0000              IN - OUT =           0.0000

 PERCENT DISCREPANCY =           0.00     PERCENT DISCREPANCY =           0.00






         TIME SUMMARY AT END OF TIME STEP    1 IN STRESS PERIOD   42
                    SECONDS     MINUTES      HOURS       DAYS        YEARS
                    -----------------------------------------------------------
   TIME STEP LENGTH 1.57680E+07 2.62800E+05  4380.0      182.50     0.49966    
 STRESS PERIOD TIME 1.57680E+07 2.62800E+05  4380.0      182.50     0.49966    
         TOTAL TIME 1.13530E+09 1.89216E+07 3.15360E+05  13140.      35.975    
1
1
                            STRESS PERIOD NO.   43, LENGTH =   182.5000    
                            -----------------------------------------------

                              NUMBER OF TIME STEPS =     1

                               MULTIPLIER FOR DELT =     1.000

                            INITIAL TIME STEP SIZE =   182.5000    

 REUSING NON-PARAMETER WELLS FROM LAST STRESS PERIOD

      1 WELL 

 SOLVING FOR HEAD 

 NO OUTPUT CONTROL FOR STRESS PERIOD   43   TIME STEP    1

 SAVING SATURATED THICKNESS AND FLOW TERMS ON UNIT   54 FOR MT3DMS
 BY THE LINK-MT3DMS PACKAGE V7 AT TIME STEP    1, STRESS PERIOD   43

1
  VOLUMETRIC BUDGET FOR ENTIRE MODEL AT END OF TIME STEP    1, STRESS PERIOD  43
  ------------------------------------------------------------------------------

     CUMULATIVE VOLUMES      L**3       RATES FOR THIS TIME STEP      L**3/T
     ------------------                 ------------------------

           IN:                                      IN:
           ---                                      ---
             STORAGE =           0.0000               STORAGE =           0.0000
       CONSTANT HEAD =    36138928.0000         CONSTANT HEAD =        2751.2017
               WELLS =      730000.0000                 WELLS =           0.0000

            TOTAL IN =    36868928.0000              TOTAL IN =        2751.2017

          OUT:                                     OUT:
          ----                                     ----
             STORAGE =           0.0000               STORAGE =           0.0000
       CONSTANT HEAD =    36868928.0000         CONSTANT HEAD =        2751.2017
               WELLS =           0.0000                 WELLS =           0.0000

           TOTAL OUT =    36868928.0000             TOTAL OUT =        2751.2017

            IN - OUT =           0.0000              IN - OUT =           0.0000

 PERCENT DISCREPANCY =           0.00     PERCENT DISCREPANCY =           0.00






         TIME SUMMARY AT END OF TIME STEP    1 IN STRESS PERIOD   43
                    SECONDS     MINUTES      HOURS       DAYS        YEARS
                    -----------------------------------------------------------
   TIME STEP LENGTH 1.57680E+07 2.62800E+05  4380.0      182.50     0.49966    
 STRESS PERIOD TIME 1.57680E+07 2.62800E+05  4380.0      182.50     0.49966    
         TOTAL TIME 1.15106E+09 1.91844E+07 3.19740E+05  13323.      36.475    
1
1
                            STRESS PERIOD NO.   44, LENGTH =   182.5000    
                            -----------------------------------------------

                              NUMBER OF TIME STEPS =     1

                               MULTIPLIER FOR DELT =     1.000

                            INITIAL TIME STEP SIZE =   182.5000    

 REUSING NON-PARAMETER WELLS FROM LAST STRESS PERIOD

      1 WELL 

 SOLVING FOR HEAD 

 NO OUTPUT CONTROL FOR STRESS PERIOD   44   TIME STEP    1

 SAVING SATURATED THICKNESS AND FLOW TERMS ON UNIT   54 FOR MT3DMS
 BY THE LINK-MT3DMS PACKAGE V7 AT TIME STEP    1, STRESS PERIOD   44

1
  VOLUMETRIC BUDGET FOR ENTIRE MODEL AT END OF TIME STEP    1, STRESS PERIOD  44
  ------------------------------------------------------------------------------

     CUMULATIVE VOLUMES      L**3       RATES FOR THIS TIME STEP      L**3/T
     ------------------                 ------------------------

           IN:                                      IN:
           ---                                      ---
             STORAGE =           0.0000               STORAGE =           0.0000
       CONSTANT HEAD =    36641024.0000         CONSTANT HEAD =        2751.2017
               WELLS =      730000.0000                 WELLS =           0.0000

            TOTAL IN =    37371024.0000              TOTAL IN =        2751.2017

          OUT:                                     OUT:
          ----                                     ----
             STORAGE =           0.0000               STORAGE =           0.0000
       CONSTANT HEAD =    37371024.0000         CONSTANT HEAD =        2751.2017
               WELLS =           0.0000                 WELLS =           0.0000

           TOTAL OUT =    37371024.0000             TOTAL OUT =        2751.2017

            IN - OUT =           0.0000              IN - OUT =           0.0000

 PERCENT DISCREPANCY =           0.00     PERCENT DISCREPANCY =           0.00






         TIME SUMMARY AT END OF TIME STEP    1 IN STRESS PERIOD   44
                    SECONDS     MINUTES      HOURS       DAYS        YEARS
                    -----------------------------------------------------------
   TIME STEP LENGTH 1.57680E+07 2.62800E+05  4380.0      182.50     0.49966    
 STRESS PERIOD TIME 1.57680E+07 2.62800E+05  4380.0      182.50     0.49966    
         TOTAL TIME 1.16683E+09 1.94472E+07 3.24120E+05  13505.      36.975    
1
1
                            STRESS PERIOD NO.   45, LENGTH =   182.5000    
                            -----------------------------------------------

                              NUMBER OF TIME STEPS =     1

                               MULTIPLIER FOR DELT =     1.000

                            INITIAL TIME STEP SIZE =   182.5000    

 REUSING NON-PARAMETER WELLS FROM LAST STRESS PERIOD

      1 WELL 

 SOLVING FOR HEAD 

 NO OUTPUT CONTROL FOR STRESS PERIOD   45   TIME STEP    1

 SAVING SATURATED THICKNESS AND FLOW TERMS ON UNIT   54 FOR MT3DMS
 BY THE LINK-MT3DMS PACKAGE V7 AT TIME STEP    1, STRESS PERIOD   45

1
  VOLUMETRIC BUDGET FOR ENTIRE MODEL AT END OF TIME STEP    1, STRESS PERIOD  45
  ------------------------------------------------------------------------------

     CUMULATIVE VOLUMES      L**3       RATES FOR THIS TIME STEP      L**3/T
     ------------------                 ------------------------

           IN:                                      IN:
           ---                                      ---
             STORAGE =           0.0000               STORAGE =           0.0000
       CONSTANT HEAD =    37143120.0000         CONSTANT HEAD =        2751.2017
               WELLS =      730000.0000                 WELLS =           0.0000

            TOTAL IN =    37873120.0000              TOTAL IN =        2751.2017

          OUT:                                     OUT:
          ----                                     ----
             STORAGE =           0.0000               STORAGE =           0.0000
       CONSTANT HEAD =    37873120.0000         CONSTANT HEAD =        2751.2017
               WELLS =           0.0000                 WELLS =           0.0000

           TOTAL OUT =    37873120.0000             TOTAL OUT =        2751.2017

            IN - OUT =           0.0000              IN - OUT =           0.0000

 PERCENT DISCREPANCY =           0.00     PERCENT DISCREPANCY =           0.00






         TIME SUMMARY AT END OF TIME STEP    1 IN STRESS PERIOD   45
                    SECONDS     MINUTES      HOURS       DAYS        YEARS
                    -----------------------------------------------------------
   TIME STEP LENGTH 1.57680E+07 2.62800E+05  4380.0      182.50     0.49966    
 STRESS PERIOD TIME 1.57680E+07 2.62800E+05  4380.0      182.50     0.49966    
         TOTAL TIME 1.18260E+09 1.97100E+07 3.28500E+05  13687.      37.474    
1
1
                            STRESS PERIOD NO.   46, LENGTH =   182.5000    
                            -----------------------------------------------

                              NUMBER OF TIME STEPS =     1

                               MULTIPLIER FOR DELT =     1.000

                            INITIAL TIME STEP SIZE =   182.5000    

 REUSING NON-PARAMETER WELLS FROM LAST STRESS PERIOD

      1 WELL 

 SOLVING FOR HEAD 

 NO OUTPUT CONTROL FOR STRESS PERIOD   46   TIME STEP    1

 SAVING SATURATED THICKNESS AND FLOW TERMS ON UNIT   54 FOR MT3DMS
 BY THE LINK-MT3DMS PACKAGE V7 AT TIME STEP    1, STRESS PERIOD   46

1
  VOLUMETRIC BUDGET FOR ENTIRE MODEL AT END OF TIME STEP    1, STRESS PERIOD  46
  ------------------------------------------------------------------------------

     CUMULATIVE VOLUMES      L**3       RATES FOR THIS TIME STEP      L**3/T
     ------------------                 ------------------------

           IN:                                      IN:
           ---                                      ---
             STORAGE =           0.0000               STORAGE =           0.0000
       CONSTANT HEAD =    37645216.0000         CONSTANT HEAD =        2751.2017
               WELLS =      730000.0000                 WELLS =           0.0000

            TOTAL IN =    38375216.0000              TOTAL IN =        2751.2017

          OUT:                                     OUT:
          ----                                     ----
             STORAGE =           0.0000               STORAGE =           0.0000
       CONSTANT HEAD =    38375216.0000         CONSTANT HEAD =        2751.2017
               WELLS =           0.0000                 WELLS =           0.0000

           TOTAL OUT =    38375216.0000             TOTAL OUT =        2751.2017

            IN - OUT =           0.0000              IN - OUT =           0.0000

 PERCENT DISCREPANCY =           0.00     PERCENT DISCREPANCY =           0.00






         TIME SUMMARY AT END OF TIME STEP    1 IN STRESS PERIOD   46
                    SECONDS     MINUTES      HOURS       DAYS        YEARS
                    -----------------------------------------------------------
   TIME STEP LENGTH 1.57680E+07 2.62800E+05  4380.0      182.50     0.49966    
 STRESS PERIOD TIME 1.57680E+07 2.62800E+05  4380.0      182.50     0.49966    
         TOTAL TIME 1.19837E+09 1.99728E+07 3.32880E+05  13870.      37.974    
1
1
                            STRESS PERIOD NO.   47, LENGTH =   182.5000    
                            -----------------------------------------------

                              NUMBER OF TIME STEPS =     1

                               MULTIPLIER FOR DELT =     1.000

                            INITIAL TIME STEP SIZE =   182.5000    

 REUSING NON-PARAMETER WELLS FROM LAST STRESS PERIOD

      1 WELL 

 SOLVING FOR HEAD 

 NO OUTPUT CONTROL FOR STRESS PERIOD   47   TIME STEP    1

 SAVING SATURATED THICKNESS AND FLOW TERMS ON UNIT   54 FOR MT3DMS
 BY THE LINK-MT3DMS PACKAGE V7 AT TIME STEP    1, STRESS PERIOD   47

1
  VOLUMETRIC BUDGET FOR ENTIRE MODEL AT END OF TIME STEP    1, STRESS PERIOD  47
  ------------------------------------------------------------------------------

     CUMULATIVE VOLUMES      L**3       RATES FOR THIS TIME STEP      L**3/T
     ------------------                 ------------------------

           IN:                                      IN:
           ---                                      ---
             STORAGE =           0.0000               STORAGE =           0.0000
       CONSTANT HEAD =    38147312.0000         CONSTANT HEAD =        2751.2017
               WELLS =      730000.0000                 WELLS =           0.0000

            TOTAL IN =    38877312.0000              TOTAL IN =        2751.2017

          OUT:                                     OUT:
          ----                                     ----
             STORAGE =           0.0000               STORAGE =           0.0000
       CONSTANT HEAD =    38877312.0000         CONSTANT HEAD =        2751.2017
               WELLS =           0.0000                 WELLS =           0.0000

           TOTAL OUT =    38877312.0000             TOTAL OUT =        2751.2017

            IN - OUT =           0.0000              IN - OUT =           0.0000

 PERCENT DISCREPANCY =           0.00     PERCENT DISCREPANCY =           0.00






         TIME SUMMARY AT END OF TIME STEP    1 IN STRESS PERIOD   47
                    SECONDS     MINUTES      HOURS       DAYS        YEARS
                    -----------------------------------------------------------
   TIME STEP LENGTH 1.57680E+07 2.62800E+05  4380.0      182.50     0.49966    
 STRESS PERIOD TIME 1.57680E+07 2.62800E+05  4380.0      182.50     0.49966    
         TOTAL TIME 1.21414E+09 2.02356E+07 3.37260E+05  14053.      38.474    
1
1
                            STRESS PERIOD NO.   48, LENGTH =   182.5000    
                            -----------------------------------------------

                              NUMBER OF TIME STEPS =     1

                               MULTIPLIER FOR DELT =     1.000

                            INITIAL TIME STEP SIZE =   182.5000    

 REUSING NON-PARAMETER WELLS FROM LAST STRESS PERIOD

      1 WELL 

 SOLVING FOR HEAD 

 NO OUTPUT CONTROL FOR STRESS PERIOD   48   TIME STEP    1

 SAVING SATURATED THICKNESS AND FLOW TERMS ON UNIT   54 FOR MT3DMS
 BY THE LINK-MT3DMS PACKAGE V7 AT TIME STEP    1, STRESS PERIOD   48

1
  VOLUMETRIC BUDGET FOR ENTIRE MODEL AT END OF TIME STEP    1, STRESS PERIOD  48
  ------------------------------------------------------------------------------

     CUMULATIVE VOLUMES      L**3       RATES FOR THIS TIME STEP      L**3/T
     ------------------                 ------------------------

           IN:                                      IN:
           ---                                      ---
             STORAGE =           0.0000               STORAGE =           0.0000
       CONSTANT HEAD =    38649408.0000         CONSTANT HEAD =        2751.2017
               WELLS =      730000.0000                 WELLS =           0.0000

            TOTAL IN =    39379408.0000              TOTAL IN =        2751.2017

          OUT:                                     OUT:
          ----                                     ----
             STORAGE =           0.0000               STORAGE =           0.0000
       CONSTANT HEAD =    39379408.0000         CONSTANT HEAD =        2751.2017
               WELLS =           0.0000                 WELLS =           0.0000

           TOTAL OUT =    39379408.0000             TOTAL OUT =        2751.2017

            IN - OUT =           0.0000              IN - OUT =           0.0000

 PERCENT DISCREPANCY =           0.00     PERCENT DISCREPANCY =           0.00






         TIME SUMMARY AT END OF TIME STEP    1 IN STRESS PERIOD   48
                    SECONDS     MINUTES      HOURS       DAYS        YEARS
                    -----------------------------------------------------------
   TIME STEP LENGTH 1.57680E+07 2.62800E+05  4380.0      182.50     0.49966    
 STRESS PERIOD TIME 1.57680E+07 2.62800E+05  4380.0      182.50     0.49966    
         TOTAL TIME 1.22990E+09 2.04984E+07 3.41640E+05  14235.      38.973    
1
1
                            STRESS PERIOD NO.   49, LENGTH =   182.5000    
                            -----------------------------------------------

                              NUMBER OF TIME STEPS =     1

                               MULTIPLIER FOR DELT =     1.000

                            INITIAL TIME STEP SIZE =   182.5000    

 REUSING NON-PARAMETER WELLS FROM LAST STRESS PERIOD

      1 WELL 

 SOLVING FOR HEAD 

 NO OUTPUT CONTROL FOR STRESS PERIOD   49   TIME STEP    1

 SAVING SATURATED THICKNESS AND FLOW TERMS ON UNIT   54 FOR MT3DMS
 BY THE LINK-MT3DMS PACKAGE V7 AT TIME STEP    1, STRESS PERIOD   49

1
  VOLUMETRIC BUDGET FOR ENTIRE MODEL AT END OF TIME STEP    1, STRESS PERIOD  49
  ------------------------------------------------------------------------------

     CUMULATIVE VOLUMES      L**3       RATES FOR THIS TIME STEP      L**3/T
     ------------------                 ------------------------

           IN:                                      IN:
           ---                                      ---
             STORAGE =           0.0000               STORAGE =           0.0000
       CONSTANT HEAD =    39151504.0000         CONSTANT HEAD =        2751.2017
               WELLS =      730000.0000                 WELLS =           0.0000

            TOTAL IN =    39881504.0000              TOTAL IN =        2751.2017

          OUT:                                     OUT:
          ----                                     ----
             STORAGE =           0.0000               STORAGE =           0.0000
       CONSTANT HEAD =    39881504.0000         CONSTANT HEAD =        2751.2017
               WELLS =           0.0000                 WELLS =           0.0000

           TOTAL OUT =    39881504.0000             TOTAL OUT =        2751.2017

            IN - OUT =           0.0000              IN - OUT =           0.0000

 PERCENT DISCREPANCY =           0.00     PERCENT DISCREPANCY =           0.00






         TIME SUMMARY AT END OF TIME STEP    1 IN STRESS PERIOD   49
                    SECONDS     MINUTES      HOURS       DAYS        YEARS
                    -----------------------------------------------------------
   TIME STEP LENGTH 1.57680E+07 2.62800E+05  4380.0      182.50     0.49966    
 STRESS PERIOD TIME 1.57680E+07 2.62800E+05  4380.0      182.50     0.49966    
         TOTAL TIME 1.24567E+09 2.07612E+07 3.46020E+05  14417.      39.473    
1
1
                            STRESS PERIOD NO.   50, LENGTH =   182.5000    
                            -----------------------------------------------

                              NUMBER OF TIME STEPS =     1

                               MULTIPLIER FOR DELT =     1.000

                            INITIAL TIME STEP SIZE =   182.5000    

 REUSING NON-PARAMETER WELLS FROM LAST STRESS PERIOD

      1 WELL 

 SOLVING FOR HEAD 

 NO OUTPUT CONTROL FOR STRESS PERIOD   50   TIME STEP    1

 SAVING SATURATED THICKNESS AND FLOW TERMS ON UNIT   54 FOR MT3DMS
 BY THE LINK-MT3DMS PACKAGE V7 AT TIME STEP    1, STRESS PERIOD   50

1
  VOLUMETRIC BUDGET FOR ENTIRE MODEL AT END OF TIME STEP    1, STRESS PERIOD  50
  ------------------------------------------------------------------------------

     CUMULATIVE VOLUMES      L**3       RATES FOR THIS TIME STEP      L**3/T
     ------------------                 ------------------------

           IN:                                      IN:
           ---                                      ---
             STORAGE =           0.0000               STORAGE =           0.0000
       CONSTANT HEAD =    39653600.0000         CONSTANT HEAD =        2751.2017
               WELLS =      730000.0000                 WELLS =           0.0000

            TOTAL IN =    40383600.0000              TOTAL IN =        2751.2017

          OUT:                                     OUT:
          ----                                     ----
             STORAGE =           0.0000               STORAGE =           0.0000
       CONSTANT HEAD =    40383600.0000         CONSTANT HEAD =        2751.2017
               WELLS =           0.0000                 WELLS =           0.0000

           TOTAL OUT =    40383600.0000             TOTAL OUT =        2751.2017

            IN - OUT =           0.0000              IN - OUT =           0.0000

 PERCENT DISCREPANCY =           0.00     PERCENT DISCREPANCY =           0.00






         TIME SUMMARY AT END OF TIME STEP    1 IN STRESS PERIOD   50
                    SECONDS     MINUTES      HOURS       DAYS        YEARS
                    -----------------------------------------------------------
   TIME STEP LENGTH 1.57680E+07 2.62800E+05  4380.0      182.50     0.49966    
 STRESS PERIOD TIME 1.57680E+07 2.62800E+05  4380.0      182.50     0.49966    
         TOTAL TIME 1.26144E+09 2.10240E+07 3.50400E+05  14600.      39.973    
1

 Run end date and time (yyyy/mm/dd hh:mm:ss): 2021/01/13  9:36:34
 Elapsed run time:  0.043 Seconds

