 LISTING FILE: binary_files_mt.list
                         UNIT  16

 OPENING mt3d_link.ftl
 FILE TYPE:FTL   UNIT  10

 OPENING binary_files_mt.btn
 FILE TYPE:BTN   UNIT  31

 OPENING binary_files_mt.adv
 FILE TYPE:ADV   UNIT  32

 OPENING binary_files_mt.dsp
 FILE TYPE:DSP   UNIT  33

 OPENING binary_files_mt.rct
 FILE TYPE:RCT   UNIT  36

 OPENING binary_files_mt.ssm
 FILE TYPE:SSM   UNIT  34

 OPENING binary_files_mt.gcg
 FILE TYPE:GCG   UNIT  35

                              +++++++++++++++++++++++++++++++++++++++++++++++++++++++++++++++++++++++
                              +                                                                     +
                              +                               MT3DMS                                +
                              +             A Modular 3D Multi-Species Transport Model              +
                              +    For Simulation of Advection, Dispersion and Chemical Reactions   +
                              +                of Contaminants in Groundwater Systems               +
                              +                                                                     +
                              +++++++++++++++++++++++++++++++++++++++++++++++++++++++++++++++++++++++

  ----- 
 | M T | ## BTN for MT3DMS, generated by Flopy.                                          
 | 3 D | ##                                                                              
  ----- 
 THE TRANSPORT MODEL CONSISTS OF     1 LAYER(S)   41 ROW(S)   81 COLUMN(S)
 NUMBER OF STRESS PERIOD(S) FOR TRANSPORT SIMULATION =    2
 NUMBER OF ALL COMPONENTS INCLUDED IN SIMULATION =    1
 NUMBER OF MOBILE COMPONENTS INCLUDED IN SIMULATION =    1
 UNIT FOR TIME IS D   ;  UNIT FOR LENGTH IS M   ;  UNIT FOR MASS IS KG  
 OPTIONAL PACKAGES INCLUDED IN CURRENT SIMULATION:
  o ADV   ON UNIT 32
  o DSP   ON UNIT 33
  o SSM   ON UNIT 34
  o RCT   ON UNIT 36
  o GCG   ON UNIT 35

 BTN5 -- BASIC TRANSPORT PACKAGE, VERSION 5, FEBRUARY 2010, INPUT READ FROM UNIT 31
      53380 ELEMENTS OF THE  X ARRAY USED BY THE BTN PACKAGE
       3322 ELEMENTS OF THE IX ARRAY USED BY THE BTN PACKAGE

 FMI5 -- FLOW MODEL INTERFACE PACKAGE, VERSION 5, FEBRUARY 2010, INPUT READ FROM UNIT 10
 FLOW MODEL IS STEADY-STATE
 FLOW MODEL CONTAINS CONSTANT-HEAD CELLS

 ADV5 -- ADVECTION PACKAGE, VERSION 5, FEBRUARY 2010, INPUT READ FROM UNIT 32
 ADVECTION IS SOLVED WITH THE ULTIMATE SCHEME
 COURANT NUMBER ALLOWED IN SOLVING THE ADVECTION TERM = 0.500    
          0 ELEMENTS OF THE  X ARRAY USED BY THE ADV PACKAGE
          0 ELEMENTS OF THE IX ARRAY USED BY THE ADV PACKAGE

 DSP5 -- DISPERSION PACKAGE, VERSION 5, FEBRUARY 2010, INPUT READ FROM UNIT 33
      36533 ELEMENTS OF THE  X ARRAY USED BY THE DSP PACKAGE
          0 ELEMENTS OF THE IX ARRAY USED BY THE DSP PACKAGE

 SSM5 -- SINK & SOURCE MIXING PACKAGE, VERSION 5, FEBRUARY 2010, INPUT READ FROM UNIT 34
 HEADER LINE OF THE SSM PACKAGE INPUT FILE:
  T F F F F F F F F F F F F F F F                                                                                                                                                                        
 MAJOR STRESS COMPONENTS PRESENT IN THE FLOW MODEL:
  o WELL [WEL]
 MAXIMUM NUMBER OF POINT SINKS/SOURCES =      83
       1079 ELEMENTS OF THE  X ARRAY USED BY THE SSM PACKAGE
          0 ELEMENTS OF THE IX ARRAY BY THE SSM PACKAGE

 RCT5 -- CHEMICAL REACTION PACKAGE, VERSION 5, FEBRUARY 2010, INPUT READ FROM UNIT 36
 TYPE OF SORPTION SELECTED IS [FREUNDLICH]
 FIRST-ORDER IRREVERSIBLE REACTION [RADIOACTIVE DECAY OR BIODEGRADATION] IS SIMULATED
 REACTION COEFFICIENTS ASSIGNED CELL-BY-CELL
 INITIAL SORBED/IMMOBILE PHASE CONCENTRATION ASSIGNED BY DEFAULT
      16605 ELEMENTS OF THE  X ARRAY USED BY THE RCT PACKAGE
          0 ELEMENTS OF THE IX ARRAY USED BY THE RCT PACKAGE

 GCG5 -- GENERALIZED CONJUGATE GRADIENT SOLVER PACKAGE, VERSION 5, FEBRUARY 2010 INPUT READ FROM UNIT 35
 MAXIMUM OF    1 OUTER ITERATIONS
        AND   50 INNER ITERATIONS ALLOWED FOR CLOSURE
 THE PRECONDITIONING TYPE SELECTED IS MODIFIED INCOMPLETE CHOLESKY (MIC).
 DISPERSION CROSS TERMS LUMPED INTO RIGHT-HAND-SIDE
      73112 ELEMENTS OF THE  X ARRAY USED BY THE GCG PACKAGE
        150 ELEMENTS OF THE IX ARRAY USED BY THE GCG PACKAGE

 ..........................................
 ELEMENTS OF THE  X ARRAY USED =    180710
 ELEMENTS OF THE IX ARRAY USED =      3473
 ..........................................

 LAYER NUMBER  AQUIFER TYPE
 ------------  ------------
       1            0
                                       WIDTH ALONG ROWS (DELR)  =   31.25000    
                                       WIDTH ALONG COLS (DELC)  =   31.25000    
                                       TOP ELEV. OF 1ST LAYER   =   0.000000    
                                       CELL THICKNESS (DZ)      =   50.00000     FOR LAYER  1
                                       POROSITY                 =  0.3000000     FOR LAYER  1
                                       CONCN. BOUNDARY ARRAY    =              1 FOR LAYER  1
                                       INITIAL CONC.: COMP.  01 =   0.000000     FOR LAYER  1

 VALUE INDICATING INACTIVE CONCENTRATION CELLS =   0.1000000E+31
 MINIMUM SATURATED THICKNESS [THKMIN] ALLOWED =  0.0100 OF TOTAL CELL THICKNESS


 OUTPUT CONTROL OPTIONS
 ----------------------

 DO NOT PRINT CELL CONCENTRATION
 DO NOT PRINT PARTICLE NUMBER IN EACH CELL
 DO NOT PRINT RETARDATION FACTOR
 DO NOT PRINT DISPERSION COEFFICIENT
 SAVE DISSOLVED PHASE CONCENTRATIONS IN UNFORMATTED FILES [MT3Dnnn.UCN]
  FOR EACH SPECIES ON UNITS 201 AND ABOVE
 SAVE SORBED/IMMOBILE PHASE CONCENTRATIONS IN UNFORMATTED FILES [MT3DnnnS.UCN]
  FOR EACH SPECIES ON UNITS 301 AND ABOVE, IF SORPTION/MASS TRANSFER SIMULATED

 SIMULATION RESULTS ARE SAVED EVERY   1 TRANSPORT STEP(S)

 NUMBER OF OBSERVATION POINTS =    0

 SAVE ONE-LINE SUMMARY OF MASS BUDGETS IN FILES [MT3Dnnn.MAS]
  FOR EACH SPECIES ON UNITS 601 AND ABOVE, EVERY  1 TRANSPORT STEPS

 MAXIMUM LENGTH ALONG THE X (J) AXIS =   2531.250    
 MAXIMUM LENGTH ALONG THE Y (I) AXIS =   1281.250    
 MAXIMUM LENGTH ALONG THE Z (K) AXIS =   50.00000    


 ADVECTION SOLUTION OPTIONS
 --------------------------

 ADVECTION IS SOLVED WITH THE ULTIMATE SCHEME
 COURANT NUMBER ALLOWED IN SOLVING THE ADVECTION TERM = 0.500    


 DISPERSION INPUT PARAMETERS
 ---------------------------

                                       LONG. DISPERSIVITY (AL)  =   35.00000     FOR LAYER  1
                                       H. TRANS./LONG. DISP.    =  0.3000000    
                                       V. TRANS./LONG. DISP.    =  0.1000000E-01
                                       DIFFUSION COEFFICIENT    =  0.1000000E-08


 SORPTION AND 1ST/0TH ORDER REACTION PARAMETERS
 ----------------------------------------------

                                       BULK DENSITY (RHOB)      =   1.587000     FOR LAYER  1
                                       1ST SORP. COEF. COMP. 01 =  0.1000000     FOR LAYER  1
                                       2ND SORP. COEF. COMP. 01 =  0.9000000     FOR LAYER  1
                                       SOLUTE RXN RATE: COMP 01 =   0.000000     FOR LAYER  1
                                       SORBED RXN RATE: COMP 01 =   0.000000     FOR LAYER  1

 MAXIMUM STEPSIZE WHICH MEETS STABILITY CRITERION OF THE REACTION TERM
 = 0.1000E+31 AT K=   0, I=   0, J=   0



                                               SOLUTION BY THE GENERALIZED CONJUGATE GRADIENT METHOD
                                               -----------------------------------------------------
                                     MAXIMUM OUTER ITERATIONS ALLOWED FOR CLOSURE =        1
                                     MAXIMUM INNER ITERATIONS ALLOWED FOR CLOSURE =       50
                                                    PRECONDITIONING TYPE SELECTED =    3
                                                           ACCELERATION PARAMETER =     1.0000    
                                       CONCENTRATION CHANGE CRITERION FOR CLOSURE =    0.10000E-04
                                       GCG CONCENTRATION CHANGE PRINTOUT INTERVAL =      999


                                   ++++++++++++++++++++++++++++++++++++++++++++++++++++++++++++++
                                                       STRESS PERIOD NO.  001
                                   ++++++++++++++++++++++++++++++++++++++++++++++++++++++++++++++


 LENGTH OF CURRENT STRESS PERIOD =   7300.000    
 NUMBER OF TIME STEPS FOR CURRENT STRESS PERIOD =    1
 TIME STEP MULTIPLIER USED IN FLOW SOLUTION =   1.000000    

 ***Type of Transport Simulation is TRANSIENT

 USER-SPECIFIED TRANSPORT STEPSIZE =   0.000000    D   
 MAXIMUM NUMBER OF TRANSPORT STEPS ALLOWED  IN ONE FLOW TIME STEP =     50000
 MULTIPLIER FOR SUCCESSIVE TRANSPORT STEPS  [USED IN IMPLICIT SCHEMES] =     1.000
 MAXIMUM TRANSPORT STEP SIZE  [USED IN IMPLICIT SCHEMES] =   0.000000    D   

       NO    LAYER   ROW   COLUMN   CONCENTRATION       TYPE            COMPONENT
       1       1      26      16       10000.00         WELL                1


                                          ================================================
                                                         TIME STEP NO.  001
                                          ================================================

 FROM TIME =   0.0000     TO    7300.0    


                    "THKSAT          " FLOW TERMS FOR TIME STEP  1, STRESS PERIOD  1 READ UNFORMATTED ON UNIT 10
                    --------------------------------------------------------------------------------------------

                    "QXX             " FLOW TERMS FOR TIME STEP  1, STRESS PERIOD  1 READ UNFORMATTED ON UNIT 10
                    --------------------------------------------------------------------------------------------

                    "QYY             " FLOW TERMS FOR TIME STEP  1, STRESS PERIOD  1 READ UNFORMATTED ON UNIT 10
                    --------------------------------------------------------------------------------------------

 MAXIMUM STEPSIZE DURING WHICH ANY PARTICLE CANNOT MOVE MORE THAN ONE CELL
 =  155.0    (WHEN MIN. R.F.=1)  AT K=   1, I=  20, J=  39

 MAXIMUM STEPSIZE WHICH MEETS STABILITY CRITERION OF THE ADVECTION TERM
 (FOR PURE FINITE-DIFFERENCE OPTION, MIXELM=0) 
 =  146.2    (WHEN MIN. R.F.=1)  AT K=   1, I=  25, J=  54

                    "CNH             " FLOW TERMS FOR TIME STEP  1, STRESS PERIOD  1 READ UNFORMATTED ON UNIT 10
                    --------------------------------------------------------------------------------------------

                    "WEL             " FLOW TERMS FOR TIME STEP  1, STRESS PERIOD  1 READ UNFORMATTED ON UNIT 10
                    --------------------------------------------------------------------------------------------


 TOTAL NUMBER OF POINT SOURCES/SINKS PRESENT IN THE FLOW MODEL =    83

 MAXIMUM STEPSIZE WHICH MEETS STABILITY CRITERION OF THE SINK & SOURCE TERM
 =  182.4    (WHEN MIN. R.F.=1)  AT K=   1, I=  16, J=   1

 MAXIMUM STEPSIZE WHICH MEETS STABILITY CRITERION OF THE DISPERSION TERM
 =  53.24    (WHEN MIN. R.F.=1)  AT K=   1, I=  20, J=  38


     1 CALLS TO GCG PACKAGE FOR TRANSPORT TIME STEP   1 IN FLOW TIME STEP   1 STRESS PERIOD   1
     5 TOTAL ITERATIONS



 >>>>>>>>>>>>>>>>>>>>>>>>>>>>>>>>>>>>>>>>>>>>>>>>>>>>>>>FOR COMPONENT NO. 01<<<<<<<<<<<<<<<<<<<<<<<<<<<<<<<<<<<<<<<<<<<<<<<<<<<<<<<


                                            -------------------------------------------
                                                      TRANSPORT STEP NO.    1
                                            -------------------------------------------

 TOTAL ELAPSED TIME SINCE BEGINNING OF SIMULATION =   73.08928    D   
 .....................................................................

                     CUMMULATIVE MASS BUDGETS AT END OF TRANSPORT STEP    1, TIME STEP    1, STRESS PERIOD    1
                     ------------------------------------------------------------------------------------------

                                                             IN                           OUT
                                                      ----------------             ----------------
                               CONSTANT CONCENTRATION:    0.000000                    0.000000    
                                        CONSTANT HEAD:    0.000000                  -0.3144608E-34
                                                WELLS:    730892.8                    0.000000    
                               1ST/0TH ORDER REACTION:    0.000000                    0.000000    
                                MASS STORAGE (SOLUTE):    0.000000                   -730892.3    
                                MASS STORAGE (SORBED):    0.000000                   -287531.4    
                            ---------------------------------------------------------------------------
                                              [TOTAL]:    730892.8     KG            -1018424.     KG  

                                                          NET (IN - OUT):   -287530.9    
                                                   DISCREPANCY (PERCENT):   -32.87352    
     1 CALLS TO GCG PACKAGE FOR TRANSPORT TIME STEP   2 IN FLOW TIME STEP   1 STRESS PERIOD   1
     4 TOTAL ITERATIONS



 >>>>>>>>>>>>>>>>>>>>>>>>>>>>>>>>>>>>>>>>>>>>>>>>>>>>>>>FOR COMPONENT NO. 01<<<<<<<<<<<<<<<<<<<<<<<<<<<<<<<<<<<<<<<<<<<<<<<<<<<<<<<


                                            -------------------------------------------
                                                      TRANSPORT STEP NO.    2
                                            -------------------------------------------

 TOTAL ELAPSED TIME SINCE BEGINNING OF SIMULATION =   146.1786    D   
 .....................................................................

                     CUMMULATIVE MASS BUDGETS AT END OF TRANSPORT STEP    2, TIME STEP    1, STRESS PERIOD    1
                     ------------------------------------------------------------------------------------------

                                                             IN                           OUT
                                                      ----------------             ----------------
                               CONSTANT CONCENTRATION:    0.000000                    0.000000    
                                        CONSTANT HEAD:    0.000000                  -0.6291714E-34
                                                WELLS:    1461786.                    0.000000    
                               1ST/0TH ORDER REACTION:    0.000000                    0.000000    
                                MASS STORAGE (SOLUTE):   0.8781706E-38               -1242568.    
                                MASS STORAGE (SORBED):   0.4837299E-34               -490271.2    
                            ---------------------------------------------------------------------------
                                              [TOTAL]:    1461786.     KG            -1732839.     KG  

                                                          NET (IN - OUT):   -271053.2    
                                                   DISCREPANCY (PERCENT):   -16.96933    
     1 CALLS TO GCG PACKAGE FOR TRANSPORT TIME STEP   3 IN FLOW TIME STEP   1 STRESS PERIOD   1
     4 TOTAL ITERATIONS



 >>>>>>>>>>>>>>>>>>>>>>>>>>>>>>>>>>>>>>>>>>>>>>>>>>>>>>>FOR COMPONENT NO. 01<<<<<<<<<<<<<<<<<<<<<<<<<<<<<<<<<<<<<<<<<<<<<<<<<<<<<<<


                                            -------------------------------------------
                                                      TRANSPORT STEP NO.    3
                                            -------------------------------------------

 TOTAL ELAPSED TIME SINCE BEGINNING OF SIMULATION =   219.2678    D   
 .....................................................................

                     CUMMULATIVE MASS BUDGETS AT END OF TRANSPORT STEP    3, TIME STEP    1, STRESS PERIOD    1
                     ------------------------------------------------------------------------------------------

                                                             IN                           OUT
                                                      ----------------             ----------------
                               CONSTANT CONCENTRATION:    0.000000                    0.000000    
                                        CONSTANT HEAD:    0.000000                  -0.9439819E-34
                                                WELLS:    2192678.                    0.000000    
                               1ST/0TH ORDER REACTION:    0.000000                    0.000000    
                                MASS STORAGE (SOLUTE):   0.2052050E-37               -1755412.    
                                MASS STORAGE (SORBED):   0.1417878E-33               -695335.6    
                            ---------------------------------------------------------------------------
                                              [TOTAL]:    2192678.     KG            -2450748.     KG  

                                                          NET (IN - OUT):   -258069.5    
                                                   DISCREPANCY (PERCENT):   -11.11548    
     1 CALLS TO GCG PACKAGE FOR TRANSPORT TIME STEP   4 IN FLOW TIME STEP   1 STRESS PERIOD   1
     4 TOTAL ITERATIONS



 >>>>>>>>>>>>>>>>>>>>>>>>>>>>>>>>>>>>>>>>>>>>>>>>>>>>>>>FOR COMPONENT NO. 01<<<<<<<<<<<<<<<<<<<<<<<<<<<<<<<<<<<<<<<<<<<<<<<<<<<<<<<


                                            -------------------------------------------
                                                      TRANSPORT STEP NO.    4
                                            -------------------------------------------

 TOTAL ELAPSED TIME SINCE BEGINNING OF SIMULATION =   292.3571    D   
 .....................................................................

                     CUMMULATIVE MASS BUDGETS AT END OF TRANSPORT STEP    4, TIME STEP    1, STRESS PERIOD    1
                     ------------------------------------------------------------------------------------------

                                                             IN                           OUT
                                                      ----------------             ----------------
                               CONSTANT CONCENTRATION:    0.000000                    0.000000    
                                        CONSTANT HEAD:    0.000000                  -0.1258892E-33
                                                WELLS:    2923571.                    0.000000    
                               1ST/0TH ORDER REACTION:    0.000000                    0.000000    
                                MASS STORAGE (SOLUTE):   0.2932461E-37               -2268558.    
                                MASS STORAGE (SORBED):   0.2109484E-33               -901857.1    
                            ---------------------------------------------------------------------------
                                              [TOTAL]:    2923571.     KG            -3170415.     KG  

                                                          NET (IN - OUT):   -246844.0    
                                                   DISCREPANCY (PERCENT):   -8.101233    
     1 CALLS TO GCG PACKAGE FOR TRANSPORT TIME STEP   5 IN FLOW TIME STEP   1 STRESS PERIOD   1
     4 TOTAL ITERATIONS



 >>>>>>>>>>>>>>>>>>>>>>>>>>>>>>>>>>>>>>>>>>>>>>>>>>>>>>>FOR COMPONENT NO. 01<<<<<<<<<<<<<<<<<<<<<<<<<<<<<<<<<<<<<<<<<<<<<<<<<<<<<<<


                                            -------------------------------------------
                                                      TRANSPORT STEP NO.    5
                                            -------------------------------------------

 TOTAL ELAPSED TIME SINCE BEGINNING OF SIMULATION =   365.4464    D   
 .....................................................................

                     CUMMULATIVE MASS BUDGETS AT END OF TRANSPORT STEP    5, TIME STEP    1, STRESS PERIOD    1
                     ------------------------------------------------------------------------------------------

                                                             IN                           OUT
                                                      ----------------             ----------------
                               CONSTANT CONCENTRATION:    0.000000                    0.000000    
                                        CONSTANT HEAD:    0.000000                  -0.1574003E-33
                                                WELLS:    3654464.                    0.000000    
                               1ST/0TH ORDER REACTION:    0.000000                    0.000000    
                                MASS STORAGE (SOLUTE):   0.3936273E-37               -2781778.    
                                MASS STORAGE (SORBED):   0.2814380E-33               -1109413.    
                            ---------------------------------------------------------------------------
                                              [TOTAL]:    3654464.     KG            -3891191.     KG  

                                                          NET (IN - OUT):   -236726.8    
                                                   DISCREPANCY (PERCENT):   -6.274518    
     1 CALLS TO GCG PACKAGE FOR TRANSPORT TIME STEP   6 IN FLOW TIME STEP   1 STRESS PERIOD   1
     4 TOTAL ITERATIONS



 >>>>>>>>>>>>>>>>>>>>>>>>>>>>>>>>>>>>>>>>>>>>>>>>>>>>>>>FOR COMPONENT NO. 01<<<<<<<<<<<<<<<<<<<<<<<<<<<<<<<<<<<<<<<<<<<<<<<<<<<<<<<


                                            -------------------------------------------
                                                      TRANSPORT STEP NO.    6
                                            -------------------------------------------

 TOTAL ELAPSED TIME SINCE BEGINNING OF SIMULATION =   438.5357    D   
 .....................................................................

                     CUMMULATIVE MASS BUDGETS AT END OF TRANSPORT STEP    6, TIME STEP    1, STRESS PERIOD    1
                     ------------------------------------------------------------------------------------------

                                                             IN                           OUT
                                                      ----------------             ----------------
                               CONSTANT CONCENTRATION:    0.000000                    0.000000    
                                        CONSTANT HEAD:    0.000000                  -0.1889164E-33
                                                WELLS:    4385357.                    0.000000    
                               1ST/0TH ORDER REACTION:    0.000000                    0.000000    
                                MASS STORAGE (SOLUTE):   0.4810746E-37               -3294992.    
                                MASS STORAGE (SORBED):   0.3431012E-33               -1317745.    
                            ---------------------------------------------------------------------------
                                              [TOTAL]:    4385357.     KG            -4612736.     KG  

                                                          NET (IN - OUT):   -227379.5    
                                                   DISCREPANCY (PERCENT):   -5.053948    
     1 CALLS TO GCG PACKAGE FOR TRANSPORT TIME STEP   7 IN FLOW TIME STEP   1 STRESS PERIOD   1
     4 TOTAL ITERATIONS



 >>>>>>>>>>>>>>>>>>>>>>>>>>>>>>>>>>>>>>>>>>>>>>>>>>>>>>>FOR COMPONENT NO. 01<<<<<<<<<<<<<<<<<<<<<<<<<<<<<<<<<<<<<<<<<<<<<<<<<<<<<<<


                                            -------------------------------------------
                                                      TRANSPORT STEP NO.    7
                                            -------------------------------------------

 TOTAL ELAPSED TIME SINCE BEGINNING OF SIMULATION =   511.6250    D   
 .....................................................................

                     CUMMULATIVE MASS BUDGETS AT END OF TRANSPORT STEP    7, TIME STEP    1, STRESS PERIOD    1
                     ------------------------------------------------------------------------------------------

                                                             IN                           OUT
                                                      ----------------             ----------------
                               CONSTANT CONCENTRATION:    0.000000                    0.000000    
                                        CONSTANT HEAD:    0.000000                  -0.2204525E-33
                                                WELLS:    5116250.                    0.000000    
                               1ST/0TH ORDER REACTION:    0.000000                    0.000000    
                                MASS STORAGE (SOLUTE):   0.5851469E-37               -3808163.    
                                MASS STORAGE (SORBED):   0.4180604E-33               -1526685.    
                            ---------------------------------------------------------------------------
                                              [TOTAL]:    5116250.     KG            -5334848.     KG  

                                                          NET (IN - OUT):   -218598.0    
                                                   DISCREPANCY (PERCENT):   -4.183254    
     1 CALLS TO GCG PACKAGE FOR TRANSPORT TIME STEP   8 IN FLOW TIME STEP   1 STRESS PERIOD   1
     4 TOTAL ITERATIONS



 >>>>>>>>>>>>>>>>>>>>>>>>>>>>>>>>>>>>>>>>>>>>>>>>>>>>>>>FOR COMPONENT NO. 01<<<<<<<<<<<<<<<<<<<<<<<<<<<<<<<<<<<<<<<<<<<<<<<<<<<<<<<


                                            -------------------------------------------
                                                      TRANSPORT STEP NO.    8
                                            -------------------------------------------

 TOTAL ELAPSED TIME SINCE BEGINNING OF SIMULATION =   584.7143    D   
 .....................................................................

                     CUMMULATIVE MASS BUDGETS AT END OF TRANSPORT STEP    8, TIME STEP    1, STRESS PERIOD    1
                     ------------------------------------------------------------------------------------------

                                                             IN                           OUT
                                                      ----------------             ----------------
                               CONSTANT CONCENTRATION:    0.000000                    0.000000    
                                        CONSTANT HEAD:    0.000000                  -0.2520086E-33
                                                WELLS:    5847143.                    0.000000    
                               1ST/0TH ORDER REACTION:    0.000000                    0.000000    
                                MASS STORAGE (SOLUTE):   0.6861387E-37               -4321277.    
                                MASS STORAGE (SORBED):   0.4859713E-33               -1736119.    
                            ---------------------------------------------------------------------------
                                              [TOTAL]:    5847143.     KG            -6057396.     KG  

                                                          NET (IN - OUT):   -210253.0    
                                                   DISCREPANCY (PERCENT):   -3.532316    
     1 CALLS TO GCG PACKAGE FOR TRANSPORT TIME STEP   9 IN FLOW TIME STEP   1 STRESS PERIOD   1
     4 TOTAL ITERATIONS



 >>>>>>>>>>>>>>>>>>>>>>>>>>>>>>>>>>>>>>>>>>>>>>>>>>>>>>>FOR COMPONENT NO. 01<<<<<<<<<<<<<<<<<<<<<<<<<<<<<<<<<<<<<<<<<<<<<<<<<<<<<<<


                                            -------------------------------------------
                                                      TRANSPORT STEP NO.    9
                                            -------------------------------------------

 TOTAL ELAPSED TIME SINCE BEGINNING OF SIMULATION =   657.8036    D   
 .....................................................................

                     CUMMULATIVE MASS BUDGETS AT END OF TRANSPORT STEP    9, TIME STEP    1, STRESS PERIOD    1
                     ------------------------------------------------------------------------------------------

                                                             IN                           OUT
                                                      ----------------             ----------------
                               CONSTANT CONCENTRATION:    0.000000                    0.000000    
                                        CONSTANT HEAD:    0.000000                  -0.2835697E-33
                                                WELLS:    6578036.                    0.000000    
                               1ST/0TH ORDER REACTION:    0.000000                    0.000000    
                                MASS STORAGE (SOLUTE):   0.7456516E-37               -4834326.    
                                MASS STORAGE (SORBED):   0.5233809E-33               -1945963.    
                            ---------------------------------------------------------------------------
                                              [TOTAL]:    6578036.     KG            -6780288.     KG  

                                                          NET (IN - OUT):   -202252.0    
                                                   DISCREPANCY (PERCENT):   -3.028104    
     1 CALLS TO GCG PACKAGE FOR TRANSPORT TIME STEP  10 IN FLOW TIME STEP   1 STRESS PERIOD   1
     4 TOTAL ITERATIONS



 >>>>>>>>>>>>>>>>>>>>>>>>>>>>>>>>>>>>>>>>>>>>>>>>>>>>>>>FOR COMPONENT NO. 01<<<<<<<<<<<<<<<<<<<<<<<<<<<<<<<<<<<<<<<<<<<<<<<<<<<<<<<


                                            -------------------------------------------
                                                      TRANSPORT STEP NO.   10
                                            -------------------------------------------

 TOTAL ELAPSED TIME SINCE BEGINNING OF SIMULATION =   730.8929    D   
 .....................................................................

                     CUMMULATIVE MASS BUDGETS AT END OF TRANSPORT STEP   10, TIME STEP    1, STRESS PERIOD    1
                     ------------------------------------------------------------------------------------------

                                                             IN                           OUT
                                                      ----------------             ----------------
                               CONSTANT CONCENTRATION:    0.000000                    0.000000    
                                        CONSTANT HEAD:    0.000000                  -0.3151559E-33
                                                WELLS:    7308929.                    0.000000    
                               1ST/0TH ORDER REACTION:    0.000000                    0.000000    
                                MASS STORAGE (SOLUTE):   0.8478991E-37               -5347292.    
                                MASS STORAGE (SORBED):   0.5894820E-33               -2156162.    
                            ---------------------------------------------------------------------------
                                              [TOTAL]:    7308929.     KG            -7503454.     KG  

                                                          NET (IN - OUT):   -194525.0    
                                                   DISCREPANCY (PERCENT):   -2.626519    
     1 CALLS TO GCG PACKAGE FOR TRANSPORT TIME STEP  11 IN FLOW TIME STEP   1 STRESS PERIOD   1
     4 TOTAL ITERATIONS



 >>>>>>>>>>>>>>>>>>>>>>>>>>>>>>>>>>>>>>>>>>>>>>>>>>>>>>>FOR COMPONENT NO. 01<<<<<<<<<<<<<<<<<<<<<<<<<<<<<<<<<<<<<<<<<<<<<<<<<<<<<<<


                                            -------------------------------------------
                                                      TRANSPORT STEP NO.   11
                                            -------------------------------------------

 TOTAL ELAPSED TIME SINCE BEGINNING OF SIMULATION =   803.9822    D   
 .....................................................................

                     CUMMULATIVE MASS BUDGETS AT END OF TRANSPORT STEP   11, TIME STEP    1, STRESS PERIOD    1
                     ------------------------------------------------------------------------------------------

                                                             IN                           OUT
                                                      ----------------             ----------------
                               CONSTANT CONCENTRATION:    0.000000                    0.000000    
                                        CONSTANT HEAD:    0.000000                  -0.3467570E-33
                                                WELLS:    8039822.                    0.000000    
                               1ST/0TH ORDER REACTION:    0.000000                    0.000000    
                                MASS STORAGE (SOLUTE):   0.9326610E-37               -5860184.    
                                MASS STORAGE (SORBED):   0.6435928E-33               -2366666.    
                            ---------------------------------------------------------------------------
                                              [TOTAL]:    8039822.     KG            -8226850.     KG  

                                                          NET (IN - OUT):   -187028.0    
                                                   DISCREPANCY (PERCENT):   -2.299524    
     1 CALLS TO GCG PACKAGE FOR TRANSPORT TIME STEP  12 IN FLOW TIME STEP   1 STRESS PERIOD   1
     4 TOTAL ITERATIONS



 >>>>>>>>>>>>>>>>>>>>>>>>>>>>>>>>>>>>>>>>>>>>>>>>>>>>>>>FOR COMPONENT NO. 01<<<<<<<<<<<<<<<<<<<<<<<<<<<<<<<<<<<<<<<<<<<<<<<<<<<<<<<


                                            -------------------------------------------
                                                      TRANSPORT STEP NO.   12
                                            -------------------------------------------

 TOTAL ELAPSED TIME SINCE BEGINNING OF SIMULATION =   877.0715    D   
 .....................................................................

                     CUMMULATIVE MASS BUDGETS AT END OF TRANSPORT STEP   12, TIME STEP    1, STRESS PERIOD    1
                     ------------------------------------------------------------------------------------------

                                                             IN                           OUT
                                                      ----------------             ----------------
                               CONSTANT CONCENTRATION:    0.000000                    0.000000    
                                        CONSTANT HEAD:    0.000000                  -0.3783681E-33
                                                WELLS:    8770715.                    0.000000    
                               1ST/0TH ORDER REACTION:    0.000000                    0.000000    
                                MASS STORAGE (SOLUTE):   0.1002058E-36               -6372994.    
                                MASS STORAGE (SORBED):   0.6888046E-33               -2577441.    
                            ---------------------------------------------------------------------------
                                              [TOTAL]:    8770715.     KG            -8950434.     KG  

                                                          NET (IN - OUT):   -179719.0    
                                                   DISCREPANCY (PERCENT):   -2.028300    
     1 CALLS TO GCG PACKAGE FOR TRANSPORT TIME STEP  13 IN FLOW TIME STEP   1 STRESS PERIOD   1
     4 TOTAL ITERATIONS



 >>>>>>>>>>>>>>>>>>>>>>>>>>>>>>>>>>>>>>>>>>>>>>>>>>>>>>>FOR COMPONENT NO. 01<<<<<<<<<<<<<<<<<<<<<<<<<<<<<<<<<<<<<<<<<<<<<<<<<<<<<<<


                                            -------------------------------------------
                                                      TRANSPORT STEP NO.   13
                                            -------------------------------------------

 TOTAL ELAPSED TIME SINCE BEGINNING OF SIMULATION =   950.1608    D   
 .....................................................................

                     CUMMULATIVE MASS BUDGETS AT END OF TRANSPORT STEP   13, TIME STEP    1, STRESS PERIOD    1
                     ------------------------------------------------------------------------------------------

                                                             IN                           OUT
                                                      ----------------             ----------------
                               CONSTANT CONCENTRATION:    0.000000                    0.000000    
                                        CONSTANT HEAD:    0.000000                  -0.4099942E-33
                                                WELLS:    9501608.                    0.000000    
                               1ST/0TH ORDER REACTION:    0.000000                    0.000000    
                                MASS STORAGE (SOLUTE):   0.1075738E-36               -6885711.    
                                MASS STORAGE (SORBED):   0.7359097E-33               -2788468.    
                            ---------------------------------------------------------------------------
                                              [TOTAL]:    9501608.     KG            -9674178.     KG  

                                                          NET (IN - OUT):   -172570.0    
                                                   DISCREPANCY (PERCENT):   -1.799874    
     1 CALLS TO GCG PACKAGE FOR TRANSPORT TIME STEP  14 IN FLOW TIME STEP   1 STRESS PERIOD   1
     4 TOTAL ITERATIONS



 >>>>>>>>>>>>>>>>>>>>>>>>>>>>>>>>>>>>>>>>>>>>>>>>>>>>>>>FOR COMPONENT NO. 01<<<<<<<<<<<<<<<<<<<<<<<<<<<<<<<<<<<<<<<<<<<<<<<<<<<<<<<


                                            -------------------------------------------
                                                      TRANSPORT STEP NO.   14
                                            -------------------------------------------

 TOTAL ELAPSED TIME SINCE BEGINNING OF SIMULATION =   1023.250    D   
 .....................................................................

                     CUMMULATIVE MASS BUDGETS AT END OF TRANSPORT STEP   14, TIME STEP    1, STRESS PERIOD    1
                     ------------------------------------------------------------------------------------------

                                                             IN                           OUT
                                                      ----------------             ----------------
                               CONSTANT CONCENTRATION:    0.000000                    0.000000    
                                        CONSTANT HEAD:    0.000000                  -0.4416353E-33
                                                WELLS:   0.1023250E+08                0.000000    
                               1ST/0TH ORDER REACTION:    0.000000                    0.000000    
                                MASS STORAGE (SOLUTE):   0.1153339E-36               -7398330.    
                                MASS STORAGE (SORBED):   0.7830745E-33               -2999732.    
                            ---------------------------------------------------------------------------
                                              [TOTAL]:   0.1023250E+08 KG           -0.1039806E+08 KG  

                                                          NET (IN - OUT):   -165560.0    
                                                   DISCREPANCY (PERCENT):   -1.604998    
     1 CALLS TO GCG PACKAGE FOR TRANSPORT TIME STEP  15 IN FLOW TIME STEP   1 STRESS PERIOD   1
     4 TOTAL ITERATIONS



 >>>>>>>>>>>>>>>>>>>>>>>>>>>>>>>>>>>>>>>>>>>>>>>>>>>>>>>FOR COMPONENT NO. 01<<<<<<<<<<<<<<<<<<<<<<<<<<<<<<<<<<<<<<<<<<<<<<<<<<<<<<<


                                            -------------------------------------------
                                                      TRANSPORT STEP NO.   15
                                            -------------------------------------------

 TOTAL ELAPSED TIME SINCE BEGINNING OF SIMULATION =   1096.339    D   
 .....................................................................

                     CUMMULATIVE MASS BUDGETS AT END OF TRANSPORT STEP   15, TIME STEP    1, STRESS PERIOD    1
                     ------------------------------------------------------------------------------------------

                                                             IN                           OUT
                                                      ----------------             ----------------
                               CONSTANT CONCENTRATION:    0.000000                    0.000000    
                                        CONSTANT HEAD:    0.000000                  -0.4732914E-33
                                                WELLS:   0.1096339E+08                0.000000    
                               1ST/0TH ORDER REACTION:    0.000000                    0.000000    
                                MASS STORAGE (SOLUTE):   0.1226651E-36               -7910846.    
                                MASS STORAGE (SORBED):   0.8274467E-33               -3211222.    
                            ---------------------------------------------------------------------------
                                              [TOTAL]:   0.1096339E+08 KG           -0.1112207E+08 KG  

                                                          NET (IN - OUT):   -158674.0    
                                                   DISCREPANCY (PERCENT):   -1.436909    
     1 CALLS TO GCG PACKAGE FOR TRANSPORT TIME STEP  16 IN FLOW TIME STEP   1 STRESS PERIOD   1
     4 TOTAL ITERATIONS



 >>>>>>>>>>>>>>>>>>>>>>>>>>>>>>>>>>>>>>>>>>>>>>>>>>>>>>>FOR COMPONENT NO. 01<<<<<<<<<<<<<<<<<<<<<<<<<<<<<<<<<<<<<<<<<<<<<<<<<<<<<<<


                                            -------------------------------------------
                                                      TRANSPORT STEP NO.   16
                                            -------------------------------------------

 TOTAL ELAPSED TIME SINCE BEGINNING OF SIMULATION =   1169.429    D   
 .....................................................................

                     CUMMULATIVE MASS BUDGETS AT END OF TRANSPORT STEP   16, TIME STEP    1, STRESS PERIOD    1
                     ------------------------------------------------------------------------------------------

                                                             IN                           OUT
                                                      ----------------             ----------------
                               CONSTANT CONCENTRATION:    0.000000                    0.000000    
                                        CONSTANT HEAD:    0.000000                  -0.5049574E-33
                                                WELLS:   0.1169429E+08                0.000000    
                               1ST/0TH ORDER REACTION:    0.000000                    0.000000    
                                MASS STORAGE (SOLUTE):   0.1283936E-36               -8423258.    
                                MASS STORAGE (SORBED):   0.8615700E-33               -3422926.    
                            ---------------------------------------------------------------------------
                                              [TOTAL]:   0.1169429E+08 KG           -0.1184618E+08 KG  

                                                          NET (IN - OUT):   -151897.0    
                                                   DISCREPANCY (PERCENT):   -1.290518    
     1 CALLS TO GCG PACKAGE FOR TRANSPORT TIME STEP  17 IN FLOW TIME STEP   1 STRESS PERIOD   1
     4 TOTAL ITERATIONS



 >>>>>>>>>>>>>>>>>>>>>>>>>>>>>>>>>>>>>>>>>>>>>>>>>>>>>>>FOR COMPONENT NO. 01<<<<<<<<<<<<<<<<<<<<<<<<<<<<<<<<<<<<<<<<<<<<<<<<<<<<<<<


                                            -------------------------------------------
                                                      TRANSPORT STEP NO.   17
                                            -------------------------------------------

 TOTAL ELAPSED TIME SINCE BEGINNING OF SIMULATION =   1242.518    D   
 .....................................................................

                     CUMMULATIVE MASS BUDGETS AT END OF TRANSPORT STEP   17, TIME STEP    1, STRESS PERIOD    1
                     ------------------------------------------------------------------------------------------

                                                             IN                           OUT
                                                      ----------------             ----------------
                               CONSTANT CONCENTRATION:    0.000000                    0.000000    
                                        CONSTANT HEAD:    0.000000                  -0.5366435E-33
                                                WELLS:   0.1242518E+08                0.000000    
                               1ST/0TH ORDER REACTION:    0.000000                    0.000000    
                                MASS STORAGE (SOLUTE):   0.1332386E-36               -8935565.    
                                MASS STORAGE (SORBED):   0.8905076E-33               -3634833.    
                            ---------------------------------------------------------------------------
                                              [TOTAL]:   0.1242518E+08 KG           -0.1257040E+08 KG  

                                                          NET (IN - OUT):   -145218.0    
                                                   DISCREPANCY (PERCENT):   -1.161950    
     1 CALLS TO GCG PACKAGE FOR TRANSPORT TIME STEP  18 IN FLOW TIME STEP   1 STRESS PERIOD   1
     4 TOTAL ITERATIONS



 >>>>>>>>>>>>>>>>>>>>>>>>>>>>>>>>>>>>>>>>>>>>>>>>>>>>>>>FOR COMPONENT NO. 01<<<<<<<<<<<<<<<<<<<<<<<<<<<<<<<<<<<<<<<<<<<<<<<<<<<<<<<


                                            -------------------------------------------
                                                      TRANSPORT STEP NO.   18
                                            -------------------------------------------

 TOTAL ELAPSED TIME SINCE BEGINNING OF SIMULATION =   1315.607    D   
 .....................................................................

                     CUMMULATIVE MASS BUDGETS AT END OF TRANSPORT STEP   18, TIME STEP    1, STRESS PERIOD    1
                     ------------------------------------------------------------------------------------------

                                                             IN                           OUT
                                                      ----------------             ----------------
                               CONSTANT CONCENTRATION:    0.000000                    0.000000    
                                        CONSTANT HEAD:    0.000000                  -0.5683346E-33
                                                WELLS:   0.1315607E+08                0.000000    
                               1ST/0TH ORDER REACTION:    0.000000                    0.000000    
                                MASS STORAGE (SOLUTE):   0.1394381E-36               -9447768.    
                                MASS STORAGE (SORBED):   0.9271867E-33               -3846932.    
                            ---------------------------------------------------------------------------
                                              [TOTAL]:   0.1315607E+08 KG           -0.1329470E+08 KG  

                                                          NET (IN - OUT):   -138627.0    
                                                   DISCREPANCY (PERCENT):   -1.048189    
     1 CALLS TO GCG PACKAGE FOR TRANSPORT TIME STEP  19 IN FLOW TIME STEP   1 STRESS PERIOD   1
     4 TOTAL ITERATIONS



 >>>>>>>>>>>>>>>>>>>>>>>>>>>>>>>>>>>>>>>>>>>>>>>>>>>>>>>FOR COMPONENT NO. 01<<<<<<<<<<<<<<<<<<<<<<<<<<<<<<<<<<<<<<<<<<<<<<<<<<<<<<<


                                            -------------------------------------------
                                                      TRANSPORT STEP NO.   19
                                            -------------------------------------------

 TOTAL ELAPSED TIME SINCE BEGINNING OF SIMULATION =   1388.696    D   
 .....................................................................

                     CUMMULATIVE MASS BUDGETS AT END OF TRANSPORT STEP   19, TIME STEP    1, STRESS PERIOD    1
                     ------------------------------------------------------------------------------------------

                                                             IN                           OUT
                                                      ----------------             ----------------
                               CONSTANT CONCENTRATION:    0.000000                    0.000000    
                                        CONSTANT HEAD:    0.000000                  -0.6000507E-33
                                                WELLS:   0.1388697E+08                0.000000    
                               1ST/0TH ORDER REACTION:    0.000000                    0.000000    
                                MASS STORAGE (SOLUTE):   0.1463962E-36               -9959866.    
                                MASS STORAGE (SORBED):   0.9679516E-33               -4059217.    
                            ---------------------------------------------------------------------------
                                              [TOTAL]:   0.1388697E+08 KG           -0.1401908E+08 KG  

                                                          NET (IN - OUT):   -132117.0    
                                                   DISCREPANCY (PERCENT):  -0.9468700    
     1 CALLS TO GCG PACKAGE FOR TRANSPORT TIME STEP  20 IN FLOW TIME STEP   1 STRESS PERIOD   1
     4 TOTAL ITERATIONS



 >>>>>>>>>>>>>>>>>>>>>>>>>>>>>>>>>>>>>>>>>>>>>>>>>>>>>>>FOR COMPONENT NO. 01<<<<<<<<<<<<<<<<<<<<<<<<<<<<<<<<<<<<<<<<<<<<<<<<<<<<<<<


                                            -------------------------------------------
                                                      TRANSPORT STEP NO.   20
                                            -------------------------------------------

 TOTAL ELAPSED TIME SINCE BEGINNING OF SIMULATION =   1461.786    D   
 .....................................................................

                     CUMMULATIVE MASS BUDGETS AT END OF TRANSPORT STEP   20, TIME STEP    1, STRESS PERIOD    1
                     ------------------------------------------------------------------------------------------

                                                             IN                           OUT
                                                      ----------------             ----------------
                               CONSTANT CONCENTRATION:    0.000000                    0.000000    
                                        CONSTANT HEAD:    0.000000                  -0.6317869E-33
                                                WELLS:   0.1461786E+08                0.000000    
                               1ST/0TH ORDER REACTION:    0.000000                    0.000000    
                                MASS STORAGE (SOLUTE):   0.1529643E-36              -0.1047186E+08
                                MASS STORAGE (SORBED):   0.1007154E-32               -4271679.    
                            ---------------------------------------------------------------------------
                                              [TOTAL]:   0.1461786E+08 KG           -0.1474354E+08 KG  

                                                          NET (IN - OUT):   -125676.0    
                                                   DISCREPANCY (PERCENT):  -0.8560629    
     1 CALLS TO GCG PACKAGE FOR TRANSPORT TIME STEP  21 IN FLOW TIME STEP   1 STRESS PERIOD   1
     4 TOTAL ITERATIONS



 >>>>>>>>>>>>>>>>>>>>>>>>>>>>>>>>>>>>>>>>>>>>>>>>>>>>>>>FOR COMPONENT NO. 01<<<<<<<<<<<<<<<<<<<<<<<<<<<<<<<<<<<<<<<<<<<<<<<<<<<<<<<


                                            -------------------------------------------
                                                      TRANSPORT STEP NO.   21
                                            -------------------------------------------

 TOTAL ELAPSED TIME SINCE BEGINNING OF SIMULATION =   1534.875    D   
 .....................................................................

                     CUMMULATIVE MASS BUDGETS AT END OF TRANSPORT STEP   21, TIME STEP    1, STRESS PERIOD    1
                     ------------------------------------------------------------------------------------------

                                                             IN                           OUT
                                                      ----------------             ----------------
                               CONSTANT CONCENTRATION:    0.000000                    0.000000    
                                        CONSTANT HEAD:    0.000000                  -0.6635331E-33
                                                WELLS:   0.1534875E+08                0.000000    
                               1ST/0TH ORDER REACTION:    0.000000                    0.000000    
                                MASS STORAGE (SOLUTE):   0.1601306E-36              -0.1098374E+08
                                MASS STORAGE (SORBED):   0.1048921E-32               -4484312.    
                            ---------------------------------------------------------------------------
                                              [TOTAL]:   0.1534875E+08 KG           -0.1546805E+08 KG  

                                                          NET (IN - OUT):   -119300.0    
                                                   DISCREPANCY (PERCENT):  -0.7742529    
     1 CALLS TO GCG PACKAGE FOR TRANSPORT TIME STEP  22 IN FLOW TIME STEP   1 STRESS PERIOD   1
     4 TOTAL ITERATIONS



 >>>>>>>>>>>>>>>>>>>>>>>>>>>>>>>>>>>>>>>>>>>>>>>>>>>>>>>FOR COMPONENT NO. 01<<<<<<<<<<<<<<<<<<<<<<<<<<<<<<<<<<<<<<<<<<<<<<<<<<<<<<<


                                            -------------------------------------------
                                                      TRANSPORT STEP NO.   22
                                            -------------------------------------------

 TOTAL ELAPSED TIME SINCE BEGINNING OF SIMULATION =   1607.964    D   
 .....................................................................

                     CUMMULATIVE MASS BUDGETS AT END OF TRANSPORT STEP   22, TIME STEP    1, STRESS PERIOD    1
                     ------------------------------------------------------------------------------------------

                                                             IN                           OUT
                                                      ----------------             ----------------
                               CONSTANT CONCENTRATION:    0.000000                    0.000000    
                                        CONSTANT HEAD:    0.000000                  -0.6952893E-33
                                                WELLS:   0.1607964E+08                0.000000    
                               1ST/0TH ORDER REACTION:    0.000000                    0.000000    
                                MASS STORAGE (SOLUTE):   0.1676859E-36              -0.1149552E+08
                                MASS STORAGE (SORBED):   0.1093058E-32               -4697110.    
                            ---------------------------------------------------------------------------
                                              [TOTAL]:   0.1607964E+08 KG           -0.1619263E+08 KG  

                                                          NET (IN - OUT):   -112982.0    
                                                   DISCREPANCY (PERCENT):  -0.7001800    
     1 CALLS TO GCG PACKAGE FOR TRANSPORT TIME STEP  23 IN FLOW TIME STEP   1 STRESS PERIOD   1
     4 TOTAL ITERATIONS



 >>>>>>>>>>>>>>>>>>>>>>>>>>>>>>>>>>>>>>>>>>>>>>>>>>>>>>>FOR COMPONENT NO. 01<<<<<<<<<<<<<<<<<<<<<<<<<<<<<<<<<<<<<<<<<<<<<<<<<<<<<<<


                                            -------------------------------------------
                                                      TRANSPORT STEP NO.   23
                                            -------------------------------------------

 TOTAL ELAPSED TIME SINCE BEGINNING OF SIMULATION =   1681.053    D   
 .....................................................................

                     CUMMULATIVE MASS BUDGETS AT END OF TRANSPORT STEP   23, TIME STEP    1, STRESS PERIOD    1
                     ------------------------------------------------------------------------------------------

                                                             IN                           OUT
                                                      ----------------             ----------------
                               CONSTANT CONCENTRATION:    0.000000                    0.000000    
                                        CONSTANT HEAD:    0.000000                  -0.7270555E-33
                                                WELLS:   0.1681054E+08                0.000000    
                               1ST/0TH ORDER REACTION:    0.000000                    0.000000    
                                MASS STORAGE (SOLUTE):   0.1749521E-36              -0.1200719E+08
                                MASS STORAGE (SORBED):   0.1135808E-32               -4910068.    
                            ---------------------------------------------------------------------------
                                              [TOTAL]:   0.1681054E+08 KG           -0.1691726E+08 KG  

                                                          NET (IN - OUT):   -106718.0    
                                                   DISCREPANCY (PERCENT):  -0.6328194    
     1 CALLS TO GCG PACKAGE FOR TRANSPORT TIME STEP  24 IN FLOW TIME STEP   1 STRESS PERIOD   1
     4 TOTAL ITERATIONS



 >>>>>>>>>>>>>>>>>>>>>>>>>>>>>>>>>>>>>>>>>>>>>>>>>>>>>>>FOR COMPONENT NO. 01<<<<<<<<<<<<<<<<<<<<<<<<<<<<<<<<<<<<<<<<<<<<<<<<<<<<<<<


                                            -------------------------------------------
                                                      TRANSPORT STEP NO.   24
                                            -------------------------------------------

 TOTAL ELAPSED TIME SINCE BEGINNING OF SIMULATION =   1754.142    D   
 .....................................................................

                     CUMMULATIVE MASS BUDGETS AT END OF TRANSPORT STEP   24, TIME STEP    1, STRESS PERIOD    1
                     ------------------------------------------------------------------------------------------

                                                             IN                           OUT
                                                      ----------------             ----------------
                               CONSTANT CONCENTRATION:    0.000000                    0.000000    
                                        CONSTANT HEAD:    0.000000                  -0.7588418E-33
                                                WELLS:   0.1754143E+08                0.000000    
                               1ST/0TH ORDER REACTION:    0.000000                    0.000000    
                                MASS STORAGE (SOLUTE):   0.1836962E-36              -0.1251875E+08
                                MASS STORAGE (SORBED):   0.1186658E-32               -5123180.    
                            ---------------------------------------------------------------------------
                                              [TOTAL]:   0.1754143E+08 KG           -0.1764193E+08 KG  

                                                          NET (IN - OUT):   -100502.0    
                                                   DISCREPANCY (PERCENT):  -0.5713041    
     1 CALLS TO GCG PACKAGE FOR TRANSPORT TIME STEP  25 IN FLOW TIME STEP   1 STRESS PERIOD   1
     4 TOTAL ITERATIONS



 >>>>>>>>>>>>>>>>>>>>>>>>>>>>>>>>>>>>>>>>>>>>>>>>>>>>>>>FOR COMPONENT NO. 01<<<<<<<<<<<<<<<<<<<<<<<<<<<<<<<<<<<<<<<<<<<<<<<<<<<<<<<


                                            -------------------------------------------
                                                      TRANSPORT STEP NO.   25
                                            -------------------------------------------

 TOTAL ELAPSED TIME SINCE BEGINNING OF SIMULATION =   1827.232    D   
 .....................................................................

                     CUMMULATIVE MASS BUDGETS AT END OF TRANSPORT STEP   25, TIME STEP    1, STRESS PERIOD    1
                     ------------------------------------------------------------------------------------------

                                                             IN                           OUT
                                                      ----------------             ----------------
                               CONSTANT CONCENTRATION:    0.000000                    0.000000    
                                        CONSTANT HEAD:    0.000000                  -0.7906381E-33
                                                WELLS:   0.1827232E+08                0.000000    
                               1ST/0TH ORDER REACTION:    0.000000                    0.000000    
                                MASS STORAGE (SOLUTE):   0.1893190E-36              -0.1303021E+08
                                MASS STORAGE (SORBED):   0.1218856E-32               -5336444.    
                            ---------------------------------------------------------------------------
                                              [TOTAL]:   0.1827232E+08 KG           -0.1836665E+08 KG  

                                                          NET (IN - OUT):   -94330.00    
                                                   DISCREPANCY (PERCENT):  -0.5149161    
     1 CALLS TO GCG PACKAGE FOR TRANSPORT TIME STEP  26 IN FLOW TIME STEP   1 STRESS PERIOD   1
     4 TOTAL ITERATIONS



 >>>>>>>>>>>>>>>>>>>>>>>>>>>>>>>>>>>>>>>>>>>>>>>>>>>>>>>FOR COMPONENT NO. 01<<<<<<<<<<<<<<<<<<<<<<<<<<<<<<<<<<<<<<<<<<<<<<<<<<<<<<<


                                            -------------------------------------------
                                                      TRANSPORT STEP NO.   26
                                            -------------------------------------------

 TOTAL ELAPSED TIME SINCE BEGINNING OF SIMULATION =   1900.321    D   
 .....................................................................

                     CUMMULATIVE MASS BUDGETS AT END OF TRANSPORT STEP   26, TIME STEP    1, STRESS PERIOD    1
                     ------------------------------------------------------------------------------------------

                                                             IN                           OUT
                                                      ----------------             ----------------
                               CONSTANT CONCENTRATION:    0.000000                    0.000000    
                                        CONSTANT HEAD:    0.000000                  -0.8224443E-33
                                                WELLS:   0.1900321E+08                0.000000    
                               1ST/0TH ORDER REACTION:    0.000000                    0.000000    
                                MASS STORAGE (SOLUTE):   0.1933422E-36              -0.1354156E+08
                                MASS STORAGE (SORBED):   0.1241696E-32               -5549856.    
                            ---------------------------------------------------------------------------
                                              [TOTAL]:   0.1900321E+08 KG           -0.1909142E+08 KG  

                                                          NET (IN - OUT):   -88202.00    
                                                   DISCREPANCY (PERCENT):  -0.4630679    
     1 CALLS TO GCG PACKAGE FOR TRANSPORT TIME STEP  27 IN FLOW TIME STEP   1 STRESS PERIOD   1
     4 TOTAL ITERATIONS



 >>>>>>>>>>>>>>>>>>>>>>>>>>>>>>>>>>>>>>>>>>>>>>>>>>>>>>>FOR COMPONENT NO. 01<<<<<<<<<<<<<<<<<<<<<<<<<<<<<<<<<<<<<<<<<<<<<<<<<<<<<<<


                                            -------------------------------------------
                                                      TRANSPORT STEP NO.   27
                                            -------------------------------------------

 TOTAL ELAPSED TIME SINCE BEGINNING OF SIMULATION =   1973.410    D   
 .....................................................................

                     CUMMULATIVE MASS BUDGETS AT END OF TRANSPORT STEP   27, TIME STEP    1, STRESS PERIOD    1
                     ------------------------------------------------------------------------------------------

                                                             IN                           OUT
                                                      ----------------             ----------------
                               CONSTANT CONCENTRATION:    0.000000                    0.000000    
                                        CONSTANT HEAD:    0.000000                  -0.8542706E-33
                                                WELLS:   0.1973411E+08                0.000000    
                               1ST/0TH ORDER REACTION:    0.000000                    0.000000    
                                MASS STORAGE (SOLUTE):   0.1965043E-36              -0.1405281E+08
                                MASS STORAGE (SORBED):   0.1259342E-32               -5763412.    
                            ---------------------------------------------------------------------------
                                              [TOTAL]:   0.1973411E+08 KG           -0.1981622E+08 KG  

                                                          NET (IN - OUT):   -82114.00    
                                                   DISCREPANCY (PERCENT):  -0.4152380    
     1 CALLS TO GCG PACKAGE FOR TRANSPORT TIME STEP  28 IN FLOW TIME STEP   1 STRESS PERIOD   1
     4 TOTAL ITERATIONS



 >>>>>>>>>>>>>>>>>>>>>>>>>>>>>>>>>>>>>>>>>>>>>>>>>>>>>>>FOR COMPONENT NO. 01<<<<<<<<<<<<<<<<<<<<<<<<<<<<<<<<<<<<<<<<<<<<<<<<<<<<<<<


                                            -------------------------------------------
                                                      TRANSPORT STEP NO.   28
                                            -------------------------------------------

 TOTAL ELAPSED TIME SINCE BEGINNING OF SIMULATION =   2046.499    D   
 .....................................................................

                     CUMMULATIVE MASS BUDGETS AT END OF TRANSPORT STEP   28, TIME STEP    1, STRESS PERIOD    1
                     ------------------------------------------------------------------------------------------

                                                             IN                           OUT
                                                      ----------------             ----------------
                               CONSTANT CONCENTRATION:    0.000000                    0.000000    
                                        CONSTANT HEAD:    0.000000                  -0.8861019E-33
                                                WELLS:   0.2046500E+08                0.000000    
                               1ST/0TH ORDER REACTION:    0.000000                    0.000000    
                                MASS STORAGE (SOLUTE):   0.2005697E-36              -0.1456395E+08
                                MASS STORAGE (SORBED):   0.1281718E-32               -5977108.    
                            ---------------------------------------------------------------------------
                                              [TOTAL]:   0.2046500E+08 KG           -0.2054106E+08 KG  

                                                          NET (IN - OUT):   -76062.00    
                                                   DISCREPANCY (PERCENT):  -0.3709793    
     1 CALLS TO GCG PACKAGE FOR TRANSPORT TIME STEP  29 IN FLOW TIME STEP   1 STRESS PERIOD   1
     4 TOTAL ITERATIONS



 >>>>>>>>>>>>>>>>>>>>>>>>>>>>>>>>>>>>>>>>>>>>>>>>>>>>>>>FOR COMPONENT NO. 01<<<<<<<<<<<<<<<<<<<<<<<<<<<<<<<<<<<<<<<<<<<<<<<<<<<<<<<


                                            -------------------------------------------
                                                      TRANSPORT STEP NO.   29
                                            -------------------------------------------

 TOTAL ELAPSED TIME SINCE BEGINNING OF SIMULATION =   2119.589    D   
 .....................................................................

                     CUMMULATIVE MASS BUDGETS AT END OF TRANSPORT STEP   29, TIME STEP    1, STRESS PERIOD    1
                     ------------------------------------------------------------------------------------------

                                                             IN                           OUT
                                                      ----------------             ----------------
                               CONSTANT CONCENTRATION:    0.000000                    0.000000    
                                        CONSTANT HEAD:    0.000000                  -0.9179632E-33
                                                WELLS:   0.2119589E+08                0.000000    
                               1ST/0TH ORDER REACTION:    0.000000                    0.000000    
                                MASS STORAGE (SOLUTE):   0.2037718E-36              -0.1507499E+08
                                MASS STORAGE (SORBED):   0.1299396E-32               -6190943.    
                            ---------------------------------------------------------------------------
                                              [TOTAL]:   0.2119589E+08 KG           -0.2126593E+08 KG  

                                                          NET (IN - OUT):   -70042.00    
                                                   DISCREPANCY (PERCENT):  -0.3299057    
     1 CALLS TO GCG PACKAGE FOR TRANSPORT TIME STEP  30 IN FLOW TIME STEP   1 STRESS PERIOD   1
     4 TOTAL ITERATIONS



 >>>>>>>>>>>>>>>>>>>>>>>>>>>>>>>>>>>>>>>>>>>>>>>>>>>>>>>FOR COMPONENT NO. 01<<<<<<<<<<<<<<<<<<<<<<<<<<<<<<<<<<<<<<<<<<<<<<<<<<<<<<<


                                            -------------------------------------------
                                                      TRANSPORT STEP NO.   30
                                            -------------------------------------------

 TOTAL ELAPSED TIME SINCE BEGINNING OF SIMULATION =   2192.678    D   
 .....................................................................

                     CUMMULATIVE MASS BUDGETS AT END OF TRANSPORT STEP   30, TIME STEP    1, STRESS PERIOD    1
                     ------------------------------------------------------------------------------------------

                                                             IN                           OUT
                                                      ----------------             ----------------
                               CONSTANT CONCENTRATION:    0.000000                    0.000000    
                                        CONSTANT HEAD:    0.000000                  -0.9498445E-33
                                                WELLS:   0.2192678E+08                0.000000    
                               1ST/0TH ORDER REACTION:    0.000000                    0.000000    
                                MASS STORAGE (SOLUTE):   0.2066246E-36              -0.1558592E+08
                                MASS STORAGE (SORBED):   0.1315134E-32               -6404912.    
                            ---------------------------------------------------------------------------
                                              [TOTAL]:   0.2192678E+08 KG           -0.2199084E+08 KG  

                                                          NET (IN - OUT):   -64056.00    
                                                   DISCREPANCY (PERCENT):  -0.2917098    
     1 CALLS TO GCG PACKAGE FOR TRANSPORT TIME STEP  31 IN FLOW TIME STEP   1 STRESS PERIOD   1
     4 TOTAL ITERATIONS



 >>>>>>>>>>>>>>>>>>>>>>>>>>>>>>>>>>>>>>>>>>>>>>>>>>>>>>>FOR COMPONENT NO. 01<<<<<<<<<<<<<<<<<<<<<<<<<<<<<<<<<<<<<<<<<<<<<<<<<<<<<<<


                                            -------------------------------------------
                                                      TRANSPORT STEP NO.   31
                                            -------------------------------------------

 TOTAL ELAPSED TIME SINCE BEGINNING OF SIMULATION =   2265.767    D   
 .....................................................................

                     CUMMULATIVE MASS BUDGETS AT END OF TRANSPORT STEP   31, TIME STEP    1, STRESS PERIOD    1
                     ------------------------------------------------------------------------------------------

                                                             IN                           OUT
                                                      ----------------             ----------------
                               CONSTANT CONCENTRATION:    0.000000                    0.000000    
                                        CONSTANT HEAD:    0.000000                  -0.9817308E-33
                                                WELLS:   0.2265767E+08                0.000000    
                               1ST/0TH ORDER REACTION:    0.000000                    0.000000    
                                MASS STORAGE (SOLUTE):   0.2060238E-28              -0.1609676E+08
                                MASS STORAGE (SORBED):   0.1033755E-25               -6619014.    
                            ---------------------------------------------------------------------------
                                              [TOTAL]:   0.2265767E+08 KG           -0.2271577E+08 KG  

                                                          NET (IN - OUT):   -58098.00    
                                                   DISCREPANCY (PERCENT):  -0.2560881    
     1 CALLS TO GCG PACKAGE FOR TRANSPORT TIME STEP  32 IN FLOW TIME STEP   1 STRESS PERIOD   1
     4 TOTAL ITERATIONS



 >>>>>>>>>>>>>>>>>>>>>>>>>>>>>>>>>>>>>>>>>>>>>>>>>>>>>>>FOR COMPONENT NO. 01<<<<<<<<<<<<<<<<<<<<<<<<<<<<<<<<<<<<<<<<<<<<<<<<<<<<<<<


                                            -------------------------------------------
                                                      TRANSPORT STEP NO.   32
                                            -------------------------------------------

 TOTAL ELAPSED TIME SINCE BEGINNING OF SIMULATION =   2338.857    D   
 .....................................................................

                     CUMMULATIVE MASS BUDGETS AT END OF TRANSPORT STEP   32, TIME STEP    1, STRESS PERIOD    1
                     ------------------------------------------------------------------------------------------

                                                             IN                           OUT
                                                      ----------------             ----------------
                               CONSTANT CONCENTRATION:    0.000000                    0.000000    
                                        CONSTANT HEAD:    0.000000                  -0.1013637E-32
                                                WELLS:   0.2338857E+08                0.000000    
                               1ST/0TH ORDER REACTION:    0.000000                    0.000000    
                                MASS STORAGE (SOLUTE):   0.1220726E-27              -0.1660749E+08
                                MASS STORAGE (SORBED):   0.6170259E-25               -6833244.    
                            ---------------------------------------------------------------------------
                                              [TOTAL]:   0.2338857E+08 KG           -0.2344073E+08 KG  

                                                          NET (IN - OUT):   -52168.00    
                                                   DISCREPANCY (PERCENT):  -0.2228007    
     1 CALLS TO GCG PACKAGE FOR TRANSPORT TIME STEP  33 IN FLOW TIME STEP   1 STRESS PERIOD   1
     4 TOTAL ITERATIONS



 >>>>>>>>>>>>>>>>>>>>>>>>>>>>>>>>>>>>>>>>>>>>>>>>>>>>>>>FOR COMPONENT NO. 01<<<<<<<<<<<<<<<<<<<<<<<<<<<<<<<<<<<<<<<<<<<<<<<<<<<<<<<


                                            -------------------------------------------
                                                      TRANSPORT STEP NO.   33
                                            -------------------------------------------

 TOTAL ELAPSED TIME SINCE BEGINNING OF SIMULATION =   2411.946    D   
 .....................................................................

                     CUMMULATIVE MASS BUDGETS AT END OF TRANSPORT STEP   33, TIME STEP    1, STRESS PERIOD    1
                     ------------------------------------------------------------------------------------------

                                                             IN                           OUT
                                                      ----------------             ----------------
                               CONSTANT CONCENTRATION:    0.000000                    0.000000    
                                        CONSTANT HEAD:    0.000000                  -0.1045553E-32
                                                WELLS:   0.2411946E+08                0.000000    
                               1ST/0TH ORDER REACTION:    0.000000                    0.000000    
                                MASS STORAGE (SOLUTE):   0.2064080E-27              -0.1711812E+08
                                MASS STORAGE (SORBED):   0.1101610E-24               -7047602.    
                            ---------------------------------------------------------------------------
                                              [TOTAL]:   0.2411946E+08 KG           -0.2416572E+08 KG  

                                                          NET (IN - OUT):   -46266.00    
                                                   DISCREPANCY (PERCENT):  -0.1916364    
     1 CALLS TO GCG PACKAGE FOR TRANSPORT TIME STEP  34 IN FLOW TIME STEP   1 STRESS PERIOD   1
     4 TOTAL ITERATIONS



 >>>>>>>>>>>>>>>>>>>>>>>>>>>>>>>>>>>>>>>>>>>>>>>>>>>>>>>FOR COMPONENT NO. 01<<<<<<<<<<<<<<<<<<<<<<<<<<<<<<<<<<<<<<<<<<<<<<<<<<<<<<<


                                            -------------------------------------------
                                                      TRANSPORT STEP NO.   34
                                            -------------------------------------------

 TOTAL ELAPSED TIME SINCE BEGINNING OF SIMULATION =   2485.035    D   
 .....................................................................

                     CUMMULATIVE MASS BUDGETS AT END OF TRANSPORT STEP   34, TIME STEP    1, STRESS PERIOD    1
                     ------------------------------------------------------------------------------------------

                                                             IN                           OUT
                                                      ----------------             ----------------
                               CONSTANT CONCENTRATION:    0.000000                    0.000000    
                                        CONSTANT HEAD:    0.000000                  -0.1077485E-32
                                                WELLS:   0.2485035E+08                0.000000    
                               1ST/0TH ORDER REACTION:    0.000000                    0.000000    
                                MASS STORAGE (SOLUTE):   0.3804869E-27              -0.1762865E+08
                                MASS STORAGE (SORBED):   0.2138084E-24               -7262083.    
                            ---------------------------------------------------------------------------
                                              [TOTAL]:   0.2485035E+08 KG           -0.2489074E+08 KG  

                                                          NET (IN - OUT):   -40386.00    
                                                   DISCREPANCY (PERCENT):  -0.1623849    
     1 CALLS TO GCG PACKAGE FOR TRANSPORT TIME STEP  35 IN FLOW TIME STEP   1 STRESS PERIOD   1
     4 TOTAL ITERATIONS



 >>>>>>>>>>>>>>>>>>>>>>>>>>>>>>>>>>>>>>>>>>>>>>>>>>>>>>>FOR COMPONENT NO. 01<<<<<<<<<<<<<<<<<<<<<<<<<<<<<<<<<<<<<<<<<<<<<<<<<<<<<<<


                                            -------------------------------------------
                                                      TRANSPORT STEP NO.   35
                                            -------------------------------------------

 TOTAL ELAPSED TIME SINCE BEGINNING OF SIMULATION =   2558.125    D   
 .....................................................................

                     CUMMULATIVE MASS BUDGETS AT END OF TRANSPORT STEP   35, TIME STEP    1, STRESS PERIOD    1
                     ------------------------------------------------------------------------------------------

                                                             IN                           OUT
                                                      ----------------             ----------------
                               CONSTANT CONCENTRATION:    0.000000                    0.000000    
                                        CONSTANT HEAD:    0.000000                  -0.1109436E-32
                                                WELLS:   0.2558124E+08                0.000000    
                               1ST/0TH ORDER REACTION:    0.000000                    0.000000    
                                MASS STORAGE (SOLUTE):   0.5465083E-27              -0.1813909E+08
                                MASS STORAGE (SORBED):   0.3253061E-24               -7476686.    
                            ---------------------------------------------------------------------------
                                              [TOTAL]:   0.2558124E+08 KG           -0.2561577E+08 KG  

                                                          NET (IN - OUT):   -34530.00    
                                                   DISCREPANCY (PERCENT):  -0.1348907    
     1 CALLS TO GCG PACKAGE FOR TRANSPORT TIME STEP  36 IN FLOW TIME STEP   1 STRESS PERIOD   1
     4 TOTAL ITERATIONS



 >>>>>>>>>>>>>>>>>>>>>>>>>>>>>>>>>>>>>>>>>>>>>>>>>>>>>>>FOR COMPONENT NO. 01<<<<<<<<<<<<<<<<<<<<<<<<<<<<<<<<<<<<<<<<<<<<<<<<<<<<<<<


                                            -------------------------------------------
                                                      TRANSPORT STEP NO.   36
                                            -------------------------------------------

 TOTAL ELAPSED TIME SINCE BEGINNING OF SIMULATION =   2631.214    D   
 .....................................................................

                     CUMMULATIVE MASS BUDGETS AT END OF TRANSPORT STEP   36, TIME STEP    1, STRESS PERIOD    1
                     ------------------------------------------------------------------------------------------

                                                             IN                           OUT
                                                      ----------------             ----------------
                               CONSTANT CONCENTRATION:    0.000000                    0.000000    
                                        CONSTANT HEAD:    0.000000                  -0.1141392E-32
                                                WELLS:   0.2631213E+08                0.000000    
                               1ST/0TH ORDER REACTION:    0.000000                    0.000000    
                                MASS STORAGE (SOLUTE):   0.5927203E-27              -0.1864942E+08
                                MASS STORAGE (SORBED):   0.3610613E-24               -7691411.    
                            ---------------------------------------------------------------------------
                                              [TOTAL]:   0.2631213E+08 KG           -0.2634083E+08 KG  

                                                          NET (IN - OUT):   -28698.00    
                                                   DISCREPANCY (PERCENT):  -0.1090081    
     1 CALLS TO GCG PACKAGE FOR TRANSPORT TIME STEP  37 IN FLOW TIME STEP   1 STRESS PERIOD   1
     4 TOTAL ITERATIONS



 >>>>>>>>>>>>>>>>>>>>>>>>>>>>>>>>>>>>>>>>>>>>>>>>>>>>>>>FOR COMPONENT NO. 01<<<<<<<<<<<<<<<<<<<<<<<<<<<<<<<<<<<<<<<<<<<<<<<<<<<<<<<


                                            -------------------------------------------
                                                      TRANSPORT STEP NO.   37
                                            -------------------------------------------

 TOTAL ELAPSED TIME SINCE BEGINNING OF SIMULATION =   2704.303    D   
 .....................................................................

                     CUMMULATIVE MASS BUDGETS AT END OF TRANSPORT STEP   37, TIME STEP    1, STRESS PERIOD    1
                     ------------------------------------------------------------------------------------------

                                                             IN                           OUT
                                                      ----------------             ----------------
                               CONSTANT CONCENTRATION:    0.000000                    0.000000    
                                        CONSTANT HEAD:    0.000000                  -0.1173374E-32
                                                WELLS:   0.2704303E+08                0.000000    
                               1ST/0TH ORDER REACTION:    0.000000                    0.000000    
                                MASS STORAGE (SOLUTE):   0.6059622E-27              -0.1915966E+08
                                MASS STORAGE (SORBED):   0.3727355E-24               -7906254.    
                            ---------------------------------------------------------------------------
                                              [TOTAL]:   0.2704303E+08 KG           -0.2706591E+08 KG  

                                                          NET (IN - OUT):   -22884.00    
                                                   DISCREPANCY (PERCENT):  -0.8458492E-01
     1 CALLS TO GCG PACKAGE FOR TRANSPORT TIME STEP  38 IN FLOW TIME STEP   1 STRESS PERIOD   1
     4 TOTAL ITERATIONS



 >>>>>>>>>>>>>>>>>>>>>>>>>>>>>>>>>>>>>>>>>>>>>>>>>>>>>>>FOR COMPONENT NO. 01<<<<<<<<<<<<<<<<<<<<<<<<<<<<<<<<<<<<<<<<<<<<<<<<<<<<<<<


                                            -------------------------------------------
                                                      TRANSPORT STEP NO.   38
                                            -------------------------------------------

 TOTAL ELAPSED TIME SINCE BEGINNING OF SIMULATION =   2777.393    D   
 .....................................................................

                     CUMMULATIVE MASS BUDGETS AT END OF TRANSPORT STEP   38, TIME STEP    1, STRESS PERIOD    1
                     ------------------------------------------------------------------------------------------

                                                             IN                           OUT
                                                      ----------------             ----------------
                               CONSTANT CONCENTRATION:    0.000000                    0.000000    
                                        CONSTANT HEAD:    0.000000                  -0.1205365E-32
                                                WELLS:   0.2777392E+08                0.000000    
                               1ST/0TH ORDER REACTION:    0.000000                    0.000000    
                                MASS STORAGE (SOLUTE):   0.6073972E-27              -0.1966979E+08
                                MASS STORAGE (SORBED):   0.3741565E-24               -8121214.    
                            ---------------------------------------------------------------------------
                                              [TOTAL]:   0.2777392E+08 KG           -0.2779101E+08 KG  

                                                          NET (IN - OUT):   -17090.00    
                                                   DISCREPANCY (PERCENT):  -0.6151362E-01
     1 CALLS TO GCG PACKAGE FOR TRANSPORT TIME STEP  39 IN FLOW TIME STEP   1 STRESS PERIOD   1
     4 TOTAL ITERATIONS



 >>>>>>>>>>>>>>>>>>>>>>>>>>>>>>>>>>>>>>>>>>>>>>>>>>>>>>>FOR COMPONENT NO. 01<<<<<<<<<<<<<<<<<<<<<<<<<<<<<<<<<<<<<<<<<<<<<<<<<<<<<<<


                                            -------------------------------------------
                                                      TRANSPORT STEP NO.   39
                                            -------------------------------------------

 TOTAL ELAPSED TIME SINCE BEGINNING OF SIMULATION =   2850.482    D   
 .....................................................................

                     CUMMULATIVE MASS BUDGETS AT END OF TRANSPORT STEP   39, TIME STEP    1, STRESS PERIOD    1
                     ------------------------------------------------------------------------------------------

                                                             IN                           OUT
                                                      ----------------             ----------------
                               CONSTANT CONCENTRATION:    0.000000                    0.000000    
                                        CONSTANT HEAD:    0.000000                  -0.1237376E-32
                                                WELLS:   0.2850481E+08                0.000000    
                               1ST/0TH ORDER REACTION:    0.000000                    0.000000    
                                MASS STORAGE (SOLUTE):   0.6151790E-27              -0.2017984E+08
                                MASS STORAGE (SORBED):   0.3830514E-24               -8336288.    
                            ---------------------------------------------------------------------------
                                              [TOTAL]:   0.2850481E+08 KG           -0.2851612E+08 KG  

                                                          NET (IN - OUT):   -11314.00    
                                                   DISCREPANCY (PERCENT):  -0.3968367E-01
     1 CALLS TO GCG PACKAGE FOR TRANSPORT TIME STEP  40 IN FLOW TIME STEP   1 STRESS PERIOD   1
     4 TOTAL ITERATIONS



 >>>>>>>>>>>>>>>>>>>>>>>>>>>>>>>>>>>>>>>>>>>>>>>>>>>>>>>FOR COMPONENT NO. 01<<<<<<<<<<<<<<<<<<<<<<<<<<<<<<<<<<<<<<<<<<<<<<<<<<<<<<<


                                            -------------------------------------------
                                                      TRANSPORT STEP NO.   40
                                            -------------------------------------------

 TOTAL ELAPSED TIME SINCE BEGINNING OF SIMULATION =   2923.572    D   
 .....................................................................

                     CUMMULATIVE MASS BUDGETS AT END OF TRANSPORT STEP   40, TIME STEP    1, STRESS PERIOD    1
                     ------------------------------------------------------------------------------------------

                                                             IN                           OUT
                                                      ----------------             ----------------
                               CONSTANT CONCENTRATION:    0.000000                    0.000000    
                                        CONSTANT HEAD:    0.000000                  -0.1269402E-32
                                                WELLS:   0.2923570E+08                0.000000    
                               1ST/0TH ORDER REACTION:    0.000000                    0.000000    
                                MASS STORAGE (SOLUTE):   0.6160008E-27              -0.2068978E+08
                                MASS STORAGE (SORBED):   0.3840232E-24               -8551477.    
                            ---------------------------------------------------------------------------
                                              [TOTAL]:   0.2923570E+08 KG           -0.2924126E+08 KG  

                                                          NET (IN - OUT):   -5558.000    
                                                   DISCREPANCY (PERCENT):  -0.1900920E-01
     1 CALLS TO GCG PACKAGE FOR TRANSPORT TIME STEP  41 IN FLOW TIME STEP   1 STRESS PERIOD   1
     4 TOTAL ITERATIONS



 >>>>>>>>>>>>>>>>>>>>>>>>>>>>>>>>>>>>>>>>>>>>>>>>>>>>>>>FOR COMPONENT NO. 01<<<<<<<<<<<<<<<<<<<<<<<<<<<<<<<<<<<<<<<<<<<<<<<<<<<<<<<


                                            -------------------------------------------
                                                      TRANSPORT STEP NO.   41
                                            -------------------------------------------

 TOTAL ELAPSED TIME SINCE BEGINNING OF SIMULATION =   2996.661    D   
 .....................................................................

                     CUMMULATIVE MASS BUDGETS AT END OF TRANSPORT STEP   41, TIME STEP    1, STRESS PERIOD    1
                     ------------------------------------------------------------------------------------------

                                                             IN                           OUT
                                                      ----------------             ----------------
                               CONSTANT CONCENTRATION:    0.000000                    0.000000    
                                        CONSTANT HEAD:    0.000000                  -0.1301439E-32
                                                WELLS:   0.2996659E+08                0.000000    
                               1ST/0TH ORDER REACTION:    0.000000                    0.000000    
                                MASS STORAGE (SOLUTE):   0.6160897E-27              -0.2119963E+08
                                MASS STORAGE (SORBED):   0.3841392E-24               -8766777.    
                            ---------------------------------------------------------------------------
                                              [TOTAL]:   0.2996659E+08 KG           -0.2996641E+08 KG  

                                                          NET (IN - OUT):    182.0000    
                                                   DISCREPANCY (PERCENT):   0.6073448E-03
     1 CALLS TO GCG PACKAGE FOR TRANSPORT TIME STEP  42 IN FLOW TIME STEP   1 STRESS PERIOD   1
     4 TOTAL ITERATIONS



 >>>>>>>>>>>>>>>>>>>>>>>>>>>>>>>>>>>>>>>>>>>>>>>>>>>>>>>FOR COMPONENT NO. 01<<<<<<<<<<<<<<<<<<<<<<<<<<<<<<<<<<<<<<<<<<<<<<<<<<<<<<<


                                            -------------------------------------------
                                                      TRANSPORT STEP NO.   42
                                            -------------------------------------------

 TOTAL ELAPSED TIME SINCE BEGINNING OF SIMULATION =   3069.750    D   
 .....................................................................

                     CUMMULATIVE MASS BUDGETS AT END OF TRANSPORT STEP   42, TIME STEP    1, STRESS PERIOD    1
                     ------------------------------------------------------------------------------------------

                                                             IN                           OUT
                                                      ----------------             ----------------
                               CONSTANT CONCENTRATION:    0.000000                    0.000000    
                                        CONSTANT HEAD:    0.000000                  -0.1333490E-32
                                                WELLS:   0.3069749E+08                0.000000    
                               1ST/0TH ORDER REACTION:    0.000000                    0.000000    
                                MASS STORAGE (SOLUTE):   0.6160922E-27              -0.2170939E+08
                                MASS STORAGE (SORBED):   0.3841430E-24               -8982188.    
                            ---------------------------------------------------------------------------
                                              [TOTAL]:   0.3069749E+08 KG           -0.3069158E+08 KG  

                                                          NET (IN - OUT):    5906.000    
                                                   DISCREPANCY (PERCENT):   0.1924121E-01
     1 CALLS TO GCG PACKAGE FOR TRANSPORT TIME STEP  43 IN FLOW TIME STEP   1 STRESS PERIOD   1
     4 TOTAL ITERATIONS



 >>>>>>>>>>>>>>>>>>>>>>>>>>>>>>>>>>>>>>>>>>>>>>>>>>>>>>>FOR COMPONENT NO. 01<<<<<<<<<<<<<<<<<<<<<<<<<<<<<<<<<<<<<<<<<<<<<<<<<<<<<<<


                                            -------------------------------------------
                                                      TRANSPORT STEP NO.   43
                                            -------------------------------------------

 TOTAL ELAPSED TIME SINCE BEGINNING OF SIMULATION =   3142.840    D   
 .....................................................................

                     CUMMULATIVE MASS BUDGETS AT END OF TRANSPORT STEP   43, TIME STEP    1, STRESS PERIOD    1
                     ------------------------------------------------------------------------------------------

                                                             IN                           OUT
                                                      ----------------             ----------------
                               CONSTANT CONCENTRATION:    0.000000                    0.000000    
                                        CONSTANT HEAD:    0.000000                  -0.1365551E-32
                                                WELLS:   0.3142838E+08                0.000000    
                               1ST/0TH ORDER REACTION:    0.000000                    0.000000    
                                MASS STORAGE (SOLUTE):   0.6160922E-27              -0.2221906E+08
                                MASS STORAGE (SORBED):   0.3841430E-24               -9197708.    
                            ---------------------------------------------------------------------------
                                              [TOTAL]:   0.3142838E+08 KG           -0.3141676E+08 KG  

                                                          NET (IN - OUT):    11614.00    
                                                   DISCREPANCY (PERCENT):   0.3696069E-01
     1 CALLS TO GCG PACKAGE FOR TRANSPORT TIME STEP  44 IN FLOW TIME STEP   1 STRESS PERIOD   1
     4 TOTAL ITERATIONS



 >>>>>>>>>>>>>>>>>>>>>>>>>>>>>>>>>>>>>>>>>>>>>>>>>>>>>>>FOR COMPONENT NO. 01<<<<<<<<<<<<<<<<<<<<<<<<<<<<<<<<<<<<<<<<<<<<<<<<<<<<<<<


                                            -------------------------------------------
                                                      TRANSPORT STEP NO.   44
                                            -------------------------------------------

 TOTAL ELAPSED TIME SINCE BEGINNING OF SIMULATION =   3215.929    D   
 .....................................................................

                     CUMMULATIVE MASS BUDGETS AT END OF TRANSPORT STEP   44, TIME STEP    1, STRESS PERIOD    1
                     ------------------------------------------------------------------------------------------

                                                             IN                           OUT
                                                      ----------------             ----------------
                               CONSTANT CONCENTRATION:    0.000000                    0.000000    
                                        CONSTANT HEAD:    0.000000                  -0.1397633E-32
                                                WELLS:   0.3215927E+08                0.000000    
                               1ST/0TH ORDER REACTION:    0.000000                    0.000000    
                                MASS STORAGE (SOLUTE):   0.6160922E-27              -0.2272863E+08
                                MASS STORAGE (SORBED):   0.3841430E-24               -9413336.    
                            ---------------------------------------------------------------------------
                                              [TOTAL]:   0.3215927E+08 KG           -0.3214196E+08 KG  

                                                          NET (IN - OUT):    17306.00    
                                                   DISCREPANCY (PERCENT):   0.5382790E-01
     1 CALLS TO GCG PACKAGE FOR TRANSPORT TIME STEP  45 IN FLOW TIME STEP   1 STRESS PERIOD   1
     4 TOTAL ITERATIONS



 >>>>>>>>>>>>>>>>>>>>>>>>>>>>>>>>>>>>>>>>>>>>>>>>>>>>>>>FOR COMPONENT NO. 01<<<<<<<<<<<<<<<<<<<<<<<<<<<<<<<<<<<<<<<<<<<<<<<<<<<<<<<


                                            -------------------------------------------
                                                      TRANSPORT STEP NO.   45
                                            -------------------------------------------

 TOTAL ELAPSED TIME SINCE BEGINNING OF SIMULATION =   3289.018    D   
 .....................................................................

                     CUMMULATIVE MASS BUDGETS AT END OF TRANSPORT STEP   45, TIME STEP    1, STRESS PERIOD    1
                     ------------------------------------------------------------------------------------------

                                                             IN                           OUT
                                                      ----------------             ----------------
                               CONSTANT CONCENTRATION:    0.000000                    0.000000    
                                        CONSTANT HEAD:    0.000000                  -0.1429719E-32
                                                WELLS:   0.3289016E+08                0.000000    
                               1ST/0TH ORDER REACTION:    0.000000                    0.000000    
                                MASS STORAGE (SOLUTE):   0.6160922E-27              -0.2323811E+08
                                MASS STORAGE (SORBED):   0.3841430E-24               -9629070.    
                            ---------------------------------------------------------------------------
                                              [TOTAL]:   0.3289016E+08 KG           -0.3286718E+08 KG  

                                                          NET (IN - OUT):    22986.00    
                                                   DISCREPANCY (PERCENT):   0.6991159E-01
     1 CALLS TO GCG PACKAGE FOR TRANSPORT TIME STEP  46 IN FLOW TIME STEP   1 STRESS PERIOD   1
     4 TOTAL ITERATIONS



 >>>>>>>>>>>>>>>>>>>>>>>>>>>>>>>>>>>>>>>>>>>>>>>>>>>>>>>FOR COMPONENT NO. 01<<<<<<<<<<<<<<<<<<<<<<<<<<<<<<<<<<<<<<<<<<<<<<<<<<<<<<<


                                            -------------------------------------------
                                                      TRANSPORT STEP NO.   46
                                            -------------------------------------------

 TOTAL ELAPSED TIME SINCE BEGINNING OF SIMULATION =   3362.108    D   
 .....................................................................

                     CUMMULATIVE MASS BUDGETS AT END OF TRANSPORT STEP   46, TIME STEP    1, STRESS PERIOD    1
                     ------------------------------------------------------------------------------------------

                                                             IN                           OUT
                                                      ----------------             ----------------
                               CONSTANT CONCENTRATION:    0.000000                    0.000000    
                                        CONSTANT HEAD:    0.000000                  -0.1461825E-32
                                                WELLS:   0.3362106E+08                0.000000    
                               1ST/0TH ORDER REACTION:    0.000000                    0.000000    
                                MASS STORAGE (SOLUTE):   0.6160922E-27              -0.2374749E+08
                                MASS STORAGE (SORBED):   0.3841430E-24               -9844908.    
                            ---------------------------------------------------------------------------
                                              [TOTAL]:   0.3362106E+08 KG           -0.3359240E+08 KG  

                                                          NET (IN - OUT):    28656.00    
                                                   DISCREPANCY (PERCENT):   0.8526864E-01
     1 CALLS TO GCG PACKAGE FOR TRANSPORT TIME STEP  47 IN FLOW TIME STEP   1 STRESS PERIOD   1
     4 TOTAL ITERATIONS



 >>>>>>>>>>>>>>>>>>>>>>>>>>>>>>>>>>>>>>>>>>>>>>>>>>>>>>>FOR COMPONENT NO. 01<<<<<<<<<<<<<<<<<<<<<<<<<<<<<<<<<<<<<<<<<<<<<<<<<<<<<<<


                                            -------------------------------------------
                                                      TRANSPORT STEP NO.   47
                                            -------------------------------------------

 TOTAL ELAPSED TIME SINCE BEGINNING OF SIMULATION =   3435.197    D   
 .....................................................................

                     CUMMULATIVE MASS BUDGETS AT END OF TRANSPORT STEP   47, TIME STEP    1, STRESS PERIOD    1
                     ------------------------------------------------------------------------------------------

                                                             IN                           OUT
                                                      ----------------             ----------------
                               CONSTANT CONCENTRATION:    0.000000                    0.000000    
                                        CONSTANT HEAD:    0.000000                  -0.1493956E-32
                                                WELLS:   0.3435195E+08                0.000000    
                               1ST/0TH ORDER REACTION:    0.000000                    0.000000    
                                MASS STORAGE (SOLUTE):   0.6160922E-27              -0.2425679E+08
                                MASS STORAGE (SORBED):   0.3841430E-24              -0.1006085E+08
                            ---------------------------------------------------------------------------
                                              [TOTAL]:   0.3435195E+08 KG           -0.3431764E+08 KG  

                                                          NET (IN - OUT):    34308.00    
                                                   DISCREPANCY (PERCENT):   0.9992197E-01
     1 CALLS TO GCG PACKAGE FOR TRANSPORT TIME STEP  48 IN FLOW TIME STEP   1 STRESS PERIOD   1
     4 TOTAL ITERATIONS



 >>>>>>>>>>>>>>>>>>>>>>>>>>>>>>>>>>>>>>>>>>>>>>>>>>>>>>>FOR COMPONENT NO. 01<<<<<<<<<<<<<<<<<<<<<<<<<<<<<<<<<<<<<<<<<<<<<<<<<<<<<<<


                                            -------------------------------------------
                                                      TRANSPORT STEP NO.   48
                                            -------------------------------------------

 TOTAL ELAPSED TIME SINCE BEGINNING OF SIMULATION =   3508.286    D   
 .....................................................................

                     CUMMULATIVE MASS BUDGETS AT END OF TRANSPORT STEP   48, TIME STEP    1, STRESS PERIOD    1
                     ------------------------------------------------------------------------------------------

                                                             IN                           OUT
                                                      ----------------             ----------------
                               CONSTANT CONCENTRATION:    0.000000                    0.000000    
                                        CONSTANT HEAD:    0.000000                  -0.1526098E-32
                                                WELLS:   0.3508284E+08                0.000000    
                               1ST/0TH ORDER REACTION:    0.000000                    0.000000    
                                MASS STORAGE (SOLUTE):   0.6160922E-27              -0.2476599E+08
                                MASS STORAGE (SORBED):   0.3841430E-24              -0.1027689E+08
                            ---------------------------------------------------------------------------
                                              [TOTAL]:   0.3508284E+08 KG           -0.3504289E+08 KG  

                                                          NET (IN - OUT):    39952.00    
                                                   DISCREPANCY (PERCENT):   0.1139439    
     1 CALLS TO GCG PACKAGE FOR TRANSPORT TIME STEP  49 IN FLOW TIME STEP   1 STRESS PERIOD   1
     4 TOTAL ITERATIONS



 >>>>>>>>>>>>>>>>>>>>>>>>>>>>>>>>>>>>>>>>>>>>>>>>>>>>>>>FOR COMPONENT NO. 01<<<<<<<<<<<<<<<<<<<<<<<<<<<<<<<<<<<<<<<<<<<<<<<<<<<<<<<


                                            -------------------------------------------
                                                      TRANSPORT STEP NO.   49
                                            -------------------------------------------

 TOTAL ELAPSED TIME SINCE BEGINNING OF SIMULATION =   3581.376    D   
 .....................................................................

                     CUMMULATIVE MASS BUDGETS AT END OF TRANSPORT STEP   49, TIME STEP    1, STRESS PERIOD    1
                     ------------------------------------------------------------------------------------------

                                                             IN                           OUT
                                                      ----------------             ----------------
                               CONSTANT CONCENTRATION:    0.000000                    0.000000    
                                        CONSTANT HEAD:    0.000000                  -0.1558254E-32
                                                WELLS:   0.3581373E+08                0.000000    
                               1ST/0TH ORDER REACTION:    0.000000                    0.000000    
                                MASS STORAGE (SOLUTE):   0.6160922E-27              -0.2527511E+08
                                MASS STORAGE (SORBED):   0.3841430E-24              -0.1049304E+08
                            ---------------------------------------------------------------------------
                                              [TOTAL]:   0.3581373E+08 KG           -0.3576815E+08 KG  

                                                          NET (IN - OUT):    45584.00    
                                                   DISCREPANCY (PERCENT):   0.1273618    
     1 CALLS TO GCG PACKAGE FOR TRANSPORT TIME STEP  50 IN FLOW TIME STEP   1 STRESS PERIOD   1
     4 TOTAL ITERATIONS



 >>>>>>>>>>>>>>>>>>>>>>>>>>>>>>>>>>>>>>>>>>>>>>>>>>>>>>>FOR COMPONENT NO. 01<<<<<<<<<<<<<<<<<<<<<<<<<<<<<<<<<<<<<<<<<<<<<<<<<<<<<<<


                                            -------------------------------------------
                                                      TRANSPORT STEP NO.   50
                                            -------------------------------------------

 TOTAL ELAPSED TIME SINCE BEGINNING OF SIMULATION =   3654.465    D   
 .....................................................................

                     CUMMULATIVE MASS BUDGETS AT END OF TRANSPORT STEP   50, TIME STEP    1, STRESS PERIOD    1
                     ------------------------------------------------------------------------------------------

                                                             IN                           OUT
                                                      ----------------             ----------------
                               CONSTANT CONCENTRATION:    0.000000                    0.000000    
                                        CONSTANT HEAD:    0.000000                  -0.1590420E-32
                                                WELLS:   0.3654462E+08                0.000000    
                               1ST/0TH ORDER REACTION:    0.000000                    0.000000    
                                MASS STORAGE (SOLUTE):   0.6160922E-27              -0.2578414E+08
                                MASS STORAGE (SORBED):   0.3841430E-24              -0.1070928E+08
                            ---------------------------------------------------------------------------
                                              [TOTAL]:   0.3654462E+08 KG           -0.3649342E+08 KG  

                                                          NET (IN - OUT):    51204.00    
                                                   DISCREPANCY (PERCENT):   0.1402119    
     1 CALLS TO GCG PACKAGE FOR TRANSPORT TIME STEP  51 IN FLOW TIME STEP   1 STRESS PERIOD   1
     4 TOTAL ITERATIONS



 >>>>>>>>>>>>>>>>>>>>>>>>>>>>>>>>>>>>>>>>>>>>>>>>>>>>>>>FOR COMPONENT NO. 01<<<<<<<<<<<<<<<<<<<<<<<<<<<<<<<<<<<<<<<<<<<<<<<<<<<<<<<


                                            -------------------------------------------
                                                      TRANSPORT STEP NO.   51
                                            -------------------------------------------

 TOTAL ELAPSED TIME SINCE BEGINNING OF SIMULATION =   3727.554    D   
 .....................................................................

                     CUMMULATIVE MASS BUDGETS AT END OF TRANSPORT STEP   51, TIME STEP    1, STRESS PERIOD    1
                     ------------------------------------------------------------------------------------------

                                                             IN                           OUT
                                                      ----------------             ----------------
                               CONSTANT CONCENTRATION:    0.000000                    0.000000    
                                        CONSTANT HEAD:    0.000000                  -0.1622606E-32
                                                WELLS:   0.3727552E+08                0.000000    
                               1ST/0TH ORDER REACTION:    0.000000                    0.000000    
                                MASS STORAGE (SOLUTE):   0.6160922E-27              -0.2629308E+08
                                MASS STORAGE (SORBED):   0.3841430E-24              -0.1092562E+08
                            ---------------------------------------------------------------------------
                                              [TOTAL]:   0.3727552E+08 KG           -0.3721870E+08 KG  

                                                          NET (IN - OUT):    56812.00    
                                                   DISCREPANCY (PERCENT):   0.1525273    
     1 CALLS TO GCG PACKAGE FOR TRANSPORT TIME STEP  52 IN FLOW TIME STEP   1 STRESS PERIOD   1
     4 TOTAL ITERATIONS



 >>>>>>>>>>>>>>>>>>>>>>>>>>>>>>>>>>>>>>>>>>>>>>>>>>>>>>>FOR COMPONENT NO. 01<<<<<<<<<<<<<<<<<<<<<<<<<<<<<<<<<<<<<<<<<<<<<<<<<<<<<<<


                                            -------------------------------------------
                                                      TRANSPORT STEP NO.   52
                                            -------------------------------------------

 TOTAL ELAPSED TIME SINCE BEGINNING OF SIMULATION =   3800.644    D   
 .....................................................................

                     CUMMULATIVE MASS BUDGETS AT END OF TRANSPORT STEP   52, TIME STEP    1, STRESS PERIOD    1
                     ------------------------------------------------------------------------------------------

                                                             IN                           OUT
                                                      ----------------             ----------------
                               CONSTANT CONCENTRATION:    0.000000                    0.000000    
                                        CONSTANT HEAD:    0.000000                  -0.1654808E-32
                                                WELLS:   0.3800641E+08                0.000000    
                               1ST/0TH ORDER REACTION:    0.000000                    0.000000    
                                MASS STORAGE (SOLUTE):   0.6160922E-27              -0.2680194E+08
                                MASS STORAGE (SORBED):   0.3841430E-24              -0.1114206E+08
                            ---------------------------------------------------------------------------
                                              [TOTAL]:   0.3800641E+08 KG           -0.3794400E+08 KG  

                                                          NET (IN - OUT):    62408.00    
                                                   DISCREPANCY (PERCENT):   0.1643388    
     1 CALLS TO GCG PACKAGE FOR TRANSPORT TIME STEP  53 IN FLOW TIME STEP   1 STRESS PERIOD   1
     4 TOTAL ITERATIONS



 >>>>>>>>>>>>>>>>>>>>>>>>>>>>>>>>>>>>>>>>>>>>>>>>>>>>>>>FOR COMPONENT NO. 01<<<<<<<<<<<<<<<<<<<<<<<<<<<<<<<<<<<<<<<<<<<<<<<<<<<<<<<


                                            -------------------------------------------
                                                      TRANSPORT STEP NO.   53
                                            -------------------------------------------

 TOTAL ELAPSED TIME SINCE BEGINNING OF SIMULATION =   3873.733    D   
 .....................................................................

                     CUMMULATIVE MASS BUDGETS AT END OF TRANSPORT STEP   53, TIME STEP    1, STRESS PERIOD    1
                     ------------------------------------------------------------------------------------------

                                                             IN                           OUT
                                                      ----------------             ----------------
                               CONSTANT CONCENTRATION:    0.000000                    0.000000    
                                        CONSTANT HEAD:    0.000000                  -0.1687019E-32
                                                WELLS:   0.3873730E+08                0.000000    
                               1ST/0TH ORDER REACTION:    0.000000                    0.000000    
                                MASS STORAGE (SOLUTE):   0.6160922E-27              -0.2731071E+08
                                MASS STORAGE (SORBED):   0.3841430E-24              -0.1135860E+08
                            ---------------------------------------------------------------------------
                                              [TOTAL]:   0.3873730E+08 KG           -0.3866930E+08 KG  

                                                          NET (IN - OUT):    67996.00    
                                                   DISCREPANCY (PERCENT):   0.1756853    
     1 CALLS TO GCG PACKAGE FOR TRANSPORT TIME STEP  54 IN FLOW TIME STEP   1 STRESS PERIOD   1
     4 TOTAL ITERATIONS



 >>>>>>>>>>>>>>>>>>>>>>>>>>>>>>>>>>>>>>>>>>>>>>>>>>>>>>>FOR COMPONENT NO. 01<<<<<<<<<<<<<<<<<<<<<<<<<<<<<<<<<<<<<<<<<<<<<<<<<<<<<<<


                                            -------------------------------------------
                                                      TRANSPORT STEP NO.   54
                                            -------------------------------------------

 TOTAL ELAPSED TIME SINCE BEGINNING OF SIMULATION =   3946.823    D   
 .....................................................................

                     CUMMULATIVE MASS BUDGETS AT END OF TRANSPORT STEP   54, TIME STEP    1, STRESS PERIOD    1
                     ------------------------------------------------------------------------------------------

                                                             IN                           OUT
                                                      ----------------             ----------------
                               CONSTANT CONCENTRATION:    0.000000                    0.000000    
                                        CONSTANT HEAD:    0.000000                  -0.1719255E-32
                                                WELLS:   0.3946819E+08                0.000000    
                               1ST/0TH ORDER REACTION:    0.000000                    0.000000    
                                MASS STORAGE (SOLUTE):   0.6160922E-27              -0.2781939E+08
                                MASS STORAGE (SORBED):   0.3841430E-24              -0.1157523E+08
                            ---------------------------------------------------------------------------
                                              [TOTAL]:   0.3946819E+08 KG           -0.3939462E+08 KG  

                                                          NET (IN - OUT):    73576.00    
                                                   DISCREPANCY (PERCENT):   0.1865924    
     1 CALLS TO GCG PACKAGE FOR TRANSPORT TIME STEP  55 IN FLOW TIME STEP   1 STRESS PERIOD   1
     4 TOTAL ITERATIONS



 >>>>>>>>>>>>>>>>>>>>>>>>>>>>>>>>>>>>>>>>>>>>>>>>>>>>>>>FOR COMPONENT NO. 01<<<<<<<<<<<<<<<<<<<<<<<<<<<<<<<<<<<<<<<<<<<<<<<<<<<<<<<


                                            -------------------------------------------
                                                      TRANSPORT STEP NO.   55
                                            -------------------------------------------

 TOTAL ELAPSED TIME SINCE BEGINNING OF SIMULATION =   4019.912    D   
 .....................................................................

                     CUMMULATIVE MASS BUDGETS AT END OF TRANSPORT STEP   55, TIME STEP    1, STRESS PERIOD    1
                     ------------------------------------------------------------------------------------------

                                                             IN                           OUT
                                                      ----------------             ----------------
                               CONSTANT CONCENTRATION:    0.000000                    0.000000    
                                        CONSTANT HEAD:    0.000000                  -0.1751507E-32
                                                WELLS:   0.4019908E+08                0.000000    
                               1ST/0TH ORDER REACTION:    0.000000                    0.000000    
                                MASS STORAGE (SOLUTE):   0.6160922E-27              -0.2832799E+08
                                MASS STORAGE (SORBED):   0.3841430E-24              -0.1179195E+08
                            ---------------------------------------------------------------------------
                                              [TOTAL]:   0.4019908E+08 KG           -0.4011994E+08 KG  

                                                          NET (IN - OUT):    79140.00    
                                                   DISCREPANCY (PERCENT):   0.1970641    
     1 CALLS TO GCG PACKAGE FOR TRANSPORT TIME STEP  56 IN FLOW TIME STEP   1 STRESS PERIOD   1
     4 TOTAL ITERATIONS



 >>>>>>>>>>>>>>>>>>>>>>>>>>>>>>>>>>>>>>>>>>>>>>>>>>>>>>>FOR COMPONENT NO. 01<<<<<<<<<<<<<<<<<<<<<<<<<<<<<<<<<<<<<<<<<<<<<<<<<<<<<<<


                                            -------------------------------------------
                                                      TRANSPORT STEP NO.   56
                                            -------------------------------------------

 TOTAL ELAPSED TIME SINCE BEGINNING OF SIMULATION =   4093.001    D   
 .....................................................................

                     CUMMULATIVE MASS BUDGETS AT END OF TRANSPORT STEP   56, TIME STEP    1, STRESS PERIOD    1
                     ------------------------------------------------------------------------------------------

                                                             IN                           OUT
                                                      ----------------             ----------------
                               CONSTANT CONCENTRATION:    0.000000                    0.000000    
                                        CONSTANT HEAD:    0.000000                  -0.1783773E-32
                                                WELLS:   0.4092998E+08                0.000000    
                               1ST/0TH ORDER REACTION:    0.000000                    0.000000    
                                MASS STORAGE (SOLUTE):   0.6160922E-27              -0.2883651E+08
                                MASS STORAGE (SORBED):   0.3841430E-24              -0.1200877E+08
                            ---------------------------------------------------------------------------
                                              [TOTAL]:   0.4092998E+08 KG           -0.4084528E+08 KG  

                                                          NET (IN - OUT):    84700.00    
                                                   DISCREPANCY (PERCENT):   0.2071531    
     1 CALLS TO GCG PACKAGE FOR TRANSPORT TIME STEP  57 IN FLOW TIME STEP   1 STRESS PERIOD   1
     4 TOTAL ITERATIONS



 >>>>>>>>>>>>>>>>>>>>>>>>>>>>>>>>>>>>>>>>>>>>>>>>>>>>>>>FOR COMPONENT NO. 01<<<<<<<<<<<<<<<<<<<<<<<<<<<<<<<<<<<<<<<<<<<<<<<<<<<<<<<


                                            -------------------------------------------
                                                      TRANSPORT STEP NO.   57
                                            -------------------------------------------

 TOTAL ELAPSED TIME SINCE BEGINNING OF SIMULATION =   4166.090    D   
 .....................................................................

                     CUMMULATIVE MASS BUDGETS AT END OF TRANSPORT STEP   57, TIME STEP    1, STRESS PERIOD    1
                     ------------------------------------------------------------------------------------------

                                                             IN                           OUT
                                                      ----------------             ----------------
                               CONSTANT CONCENTRATION:    0.000000                    0.000000    
                                        CONSTANT HEAD:    0.000000                  -0.1816059E-32
                                                WELLS:   0.4166087E+08                0.000000    
                               1ST/0TH ORDER REACTION:    0.000000                    0.000000    
                                MASS STORAGE (SOLUTE):   0.6160922E-27              -0.2934494E+08
                                MASS STORAGE (SORBED):   0.3841430E-24              -0.1222568E+08
                            ---------------------------------------------------------------------------
                                              [TOTAL]:   0.4166087E+08 KG           -0.4157062E+08 KG  

                                                          NET (IN - OUT):    90252.00    
                                                   DISCREPANCY (PERCENT):   0.2168698    
     1 CALLS TO GCG PACKAGE FOR TRANSPORT TIME STEP  58 IN FLOW TIME STEP   1 STRESS PERIOD   1
     4 TOTAL ITERATIONS



 >>>>>>>>>>>>>>>>>>>>>>>>>>>>>>>>>>>>>>>>>>>>>>>>>>>>>>>FOR COMPONENT NO. 01<<<<<<<<<<<<<<<<<<<<<<<<<<<<<<<<<<<<<<<<<<<<<<<<<<<<<<<


                                            -------------------------------------------
                                                      TRANSPORT STEP NO.   58
                                            -------------------------------------------

 TOTAL ELAPSED TIME SINCE BEGINNING OF SIMULATION =   4239.180    D   
 .....................................................................

                     CUMMULATIVE MASS BUDGETS AT END OF TRANSPORT STEP   58, TIME STEP    1, STRESS PERIOD    1
                     ------------------------------------------------------------------------------------------

                                                             IN                           OUT
                                                      ----------------             ----------------
                               CONSTANT CONCENTRATION:    0.000000                    0.000000    
                                        CONSTANT HEAD:    0.000000                  -0.1848356E-32
                                                WELLS:   0.4239176E+08                0.000000    
                               1ST/0TH ORDER REACTION:    0.000000                    0.000000    
                                MASS STORAGE (SOLUTE):   0.6160922E-27              -0.2985329E+08
                                MASS STORAGE (SORBED):   0.3841430E-24              -0.1244268E+08
                            ---------------------------------------------------------------------------
                                              [TOTAL]:   0.4239176E+08 KG           -0.4229597E+08 KG  

                                                          NET (IN - OUT):    95792.00    
                                                   DISCREPANCY (PERCENT):   0.2262240    
     1 CALLS TO GCG PACKAGE FOR TRANSPORT TIME STEP  59 IN FLOW TIME STEP   1 STRESS PERIOD   1
     4 TOTAL ITERATIONS



 >>>>>>>>>>>>>>>>>>>>>>>>>>>>>>>>>>>>>>>>>>>>>>>>>>>>>>>FOR COMPONENT NO. 01<<<<<<<<<<<<<<<<<<<<<<<<<<<<<<<<<<<<<<<<<<<<<<<<<<<<<<<


                                            -------------------------------------------
                                                      TRANSPORT STEP NO.   59
                                            -------------------------------------------

 TOTAL ELAPSED TIME SINCE BEGINNING OF SIMULATION =   4312.269    D   
 .....................................................................

                     CUMMULATIVE MASS BUDGETS AT END OF TRANSPORT STEP   59, TIME STEP    1, STRESS PERIOD    1
                     ------------------------------------------------------------------------------------------

                                                             IN                           OUT
                                                      ----------------             ----------------
                               CONSTANT CONCENTRATION:    0.000000                    0.000000    
                                        CONSTANT HEAD:    0.000000                  -0.1880662E-32
                                                WELLS:   0.4312265E+08                0.000000    
                               1ST/0TH ORDER REACTION:    0.000000                    0.000000    
                                MASS STORAGE (SOLUTE):   0.6160922E-27              -0.3036156E+08
                                MASS STORAGE (SORBED):   0.3841430E-24              -0.1265977E+08
                            ---------------------------------------------------------------------------
                                              [TOTAL]:   0.4312265E+08 KG           -0.4302133E+08 KG  

                                                          NET (IN - OUT):    101324.0    
                                                   DISCREPANCY (PERCENT):   0.2352434    
     1 CALLS TO GCG PACKAGE FOR TRANSPORT TIME STEP  60 IN FLOW TIME STEP   1 STRESS PERIOD   1
     4 TOTAL ITERATIONS



 >>>>>>>>>>>>>>>>>>>>>>>>>>>>>>>>>>>>>>>>>>>>>>>>>>>>>>>FOR COMPONENT NO. 01<<<<<<<<<<<<<<<<<<<<<<<<<<<<<<<<<<<<<<<<<<<<<<<<<<<<<<<


                                            -------------------------------------------
                                                      TRANSPORT STEP NO.   60
                                            -------------------------------------------

 TOTAL ELAPSED TIME SINCE BEGINNING OF SIMULATION =   4385.358    D   
 .....................................................................

                     CUMMULATIVE MASS BUDGETS AT END OF TRANSPORT STEP   60, TIME STEP    1, STRESS PERIOD    1
                     ------------------------------------------------------------------------------------------

                                                             IN                           OUT
                                                      ----------------             ----------------
                               CONSTANT CONCENTRATION:    0.000000                    0.000000    
                                        CONSTANT HEAD:    0.000000                  -0.1912988E-32
                                                WELLS:   0.4385354E+08                0.000000    
                               1ST/0TH ORDER REACTION:    0.000000                    0.000000    
                                MASS STORAGE (SOLUTE):   0.6160922E-27              -0.3086974E+08
                                MASS STORAGE (SORBED):   0.3841430E-24              -0.1287695E+08
                            ---------------------------------------------------------------------------
                                              [TOTAL]:   0.4385354E+08 KG           -0.4374670E+08 KG  

                                                          NET (IN - OUT):    106848.0    
                                                   DISCREPANCY (PERCENT):   0.2439445    
     1 CALLS TO GCG PACKAGE FOR TRANSPORT TIME STEP  61 IN FLOW TIME STEP   1 STRESS PERIOD   1
     4 TOTAL ITERATIONS



 >>>>>>>>>>>>>>>>>>>>>>>>>>>>>>>>>>>>>>>>>>>>>>>>>>>>>>>FOR COMPONENT NO. 01<<<<<<<<<<<<<<<<<<<<<<<<<<<<<<<<<<<<<<<<<<<<<<<<<<<<<<<


                                            -------------------------------------------
                                                      TRANSPORT STEP NO.   61
                                            -------------------------------------------

 TOTAL ELAPSED TIME SINCE BEGINNING OF SIMULATION =   4458.448    D   
 .....................................................................

                     CUMMULATIVE MASS BUDGETS AT END OF TRANSPORT STEP   61, TIME STEP    1, STRESS PERIOD    1
                     ------------------------------------------------------------------------------------------

                                                             IN                           OUT
                                                      ----------------             ----------------
                               CONSTANT CONCENTRATION:    0.000000                    0.000000    
                                        CONSTANT HEAD:    0.000000                  -0.1945324E-32
                                                WELLS:   0.4458444E+08                0.000000    
                               1ST/0TH ORDER REACTION:    0.000000                    0.000000    
                                MASS STORAGE (SOLUTE):   0.6160922E-27              -0.3137785E+08
                                MASS STORAGE (SORBED):   0.3841430E-24              -0.1309422E+08
                            ---------------------------------------------------------------------------
                                              [TOTAL]:   0.4458444E+08 KG           -0.4447207E+08 KG  

                                                          NET (IN - OUT):    112368.0    
                                                   DISCREPANCY (PERCENT):   0.2523521    
     1 CALLS TO GCG PACKAGE FOR TRANSPORT TIME STEP  62 IN FLOW TIME STEP   1 STRESS PERIOD   1
     4 TOTAL ITERATIONS



 >>>>>>>>>>>>>>>>>>>>>>>>>>>>>>>>>>>>>>>>>>>>>>>>>>>>>>>FOR COMPONENT NO. 01<<<<<<<<<<<<<<<<<<<<<<<<<<<<<<<<<<<<<<<<<<<<<<<<<<<<<<<


                                            -------------------------------------------
                                                      TRANSPORT STEP NO.   62
                                            -------------------------------------------

 TOTAL ELAPSED TIME SINCE BEGINNING OF SIMULATION =   4531.537    D   
 .....................................................................

                     CUMMULATIVE MASS BUDGETS AT END OF TRANSPORT STEP   62, TIME STEP    1, STRESS PERIOD    1
                     ------------------------------------------------------------------------------------------

                                                             IN                           OUT
                                                      ----------------             ----------------
                               CONSTANT CONCENTRATION:    0.000000                    0.000000    
                                        CONSTANT HEAD:    0.000000                  -0.1977681E-32
                                                WELLS:   0.4531533E+08                0.000000    
                               1ST/0TH ORDER REACTION:    0.000000                    0.000000    
                                MASS STORAGE (SOLUTE):   0.6160922E-27              -0.3188588E+08
                                MASS STORAGE (SORBED):   0.3841430E-24              -0.1331158E+08
                            ---------------------------------------------------------------------------
                                              [TOTAL]:   0.4531533E+08 KG           -0.4519745E+08 KG  

                                                          NET (IN - OUT):    117876.0    
                                                   DISCREPANCY (PERCENT):   0.2604626    
     1 CALLS TO GCG PACKAGE FOR TRANSPORT TIME STEP  63 IN FLOW TIME STEP   1 STRESS PERIOD   1
     4 TOTAL ITERATIONS



 >>>>>>>>>>>>>>>>>>>>>>>>>>>>>>>>>>>>>>>>>>>>>>>>>>>>>>>FOR COMPONENT NO. 01<<<<<<<<<<<<<<<<<<<<<<<<<<<<<<<<<<<<<<<<<<<<<<<<<<<<<<<


                                            -------------------------------------------
                                                      TRANSPORT STEP NO.   63
                                            -------------------------------------------

 TOTAL ELAPSED TIME SINCE BEGINNING OF SIMULATION =   4604.626    D   
 .....................................................................

                     CUMMULATIVE MASS BUDGETS AT END OF TRANSPORT STEP   63, TIME STEP    1, STRESS PERIOD    1
                     ------------------------------------------------------------------------------------------

                                                             IN                           OUT
                                                      ----------------             ----------------
                               CONSTANT CONCENTRATION:    0.000000                    0.000000    
                                        CONSTANT HEAD:    0.000000                  -0.2010057E-32
                                                WELLS:   0.4604622E+08                0.000000    
                               1ST/0TH ORDER REACTION:    0.000000                    0.000000    
                                MASS STORAGE (SOLUTE):   0.6160922E-27              -0.3239382E+08
                                MASS STORAGE (SORBED):   0.3841430E-24              -0.1352902E+08
                            ---------------------------------------------------------------------------
                                              [TOTAL]:   0.4604622E+08 KG           -0.4592284E+08 KG  

                                                          NET (IN - OUT):    123380.0    
                                                   DISCREPANCY (PERCENT):   0.2683076    
     1 CALLS TO GCG PACKAGE FOR TRANSPORT TIME STEP  64 IN FLOW TIME STEP   1 STRESS PERIOD   1
     4 TOTAL ITERATIONS



 >>>>>>>>>>>>>>>>>>>>>>>>>>>>>>>>>>>>>>>>>>>>>>>>>>>>>>>FOR COMPONENT NO. 01<<<<<<<<<<<<<<<<<<<<<<<<<<<<<<<<<<<<<<<<<<<<<<<<<<<<<<<


                                            -------------------------------------------
                                                      TRANSPORT STEP NO.   64
                                            -------------------------------------------

 TOTAL ELAPSED TIME SINCE BEGINNING OF SIMULATION =   4677.716    D   
 .....................................................................

                     CUMMULATIVE MASS BUDGETS AT END OF TRANSPORT STEP   64, TIME STEP    1, STRESS PERIOD    1
                     ------------------------------------------------------------------------------------------

                                                             IN                           OUT
                                                      ----------------             ----------------
                               CONSTANT CONCENTRATION:    0.000000                    0.000000    
                                        CONSTANT HEAD:    0.000000                  -0.2042449E-32
                                                WELLS:   0.4677711E+08                0.000000    
                               1ST/0TH ORDER REACTION:    0.000000                    0.000000    
                                MASS STORAGE (SOLUTE):   0.6160922E-27              -0.3290169E+08
                                MASS STORAGE (SORBED):   0.3841430E-24              -0.1374655E+08
                            ---------------------------------------------------------------------------
                                              [TOTAL]:   0.4677711E+08 KG           -0.4664824E+08 KG  

                                                          NET (IN - OUT):    128876.0    
                                                   DISCREPANCY (PERCENT):   0.2758909    
     1 CALLS TO GCG PACKAGE FOR TRANSPORT TIME STEP  65 IN FLOW TIME STEP   1 STRESS PERIOD   1
     4 TOTAL ITERATIONS



 >>>>>>>>>>>>>>>>>>>>>>>>>>>>>>>>>>>>>>>>>>>>>>>>>>>>>>>FOR COMPONENT NO. 01<<<<<<<<<<<<<<<<<<<<<<<<<<<<<<<<<<<<<<<<<<<<<<<<<<<<<<<


                                            -------------------------------------------
                                                      TRANSPORT STEP NO.   65
                                            -------------------------------------------

 TOTAL ELAPSED TIME SINCE BEGINNING OF SIMULATION =   4750.805    D   
 .....................................................................

                     CUMMULATIVE MASS BUDGETS AT END OF TRANSPORT STEP   65, TIME STEP    1, STRESS PERIOD    1
                     ------------------------------------------------------------------------------------------

                                                             IN                           OUT
                                                      ----------------             ----------------
                               CONSTANT CONCENTRATION:    0.000000                    0.000000    
                                        CONSTANT HEAD:    0.000000                  -0.2074850E-32
                                                WELLS:   0.4750800E+08                0.000000    
                               1ST/0TH ORDER REACTION:    0.000000                    0.000000    
                                MASS STORAGE (SOLUTE):   0.6160922E-27              -0.3340948E+08
                                MASS STORAGE (SORBED):   0.3841430E-24              -0.1396416E+08
                            ---------------------------------------------------------------------------
                                              [TOTAL]:   0.4750800E+08 KG           -0.4737364E+08 KG  

                                                          NET (IN - OUT):    134364.0    
                                                   DISCREPANCY (PERCENT):   0.2832244    
     1 CALLS TO GCG PACKAGE FOR TRANSPORT TIME STEP  66 IN FLOW TIME STEP   1 STRESS PERIOD   1
     4 TOTAL ITERATIONS



 >>>>>>>>>>>>>>>>>>>>>>>>>>>>>>>>>>>>>>>>>>>>>>>>>>>>>>>FOR COMPONENT NO. 01<<<<<<<<<<<<<<<<<<<<<<<<<<<<<<<<<<<<<<<<<<<<<<<<<<<<<<<


                                            -------------------------------------------
                                                      TRANSPORT STEP NO.   66
                                            -------------------------------------------

 TOTAL ELAPSED TIME SINCE BEGINNING OF SIMULATION =   4823.895    D   
 .....................................................................

                     CUMMULATIVE MASS BUDGETS AT END OF TRANSPORT STEP   66, TIME STEP    1, STRESS PERIOD    1
                     ------------------------------------------------------------------------------------------

                                                             IN                           OUT
                                                      ----------------             ----------------
                               CONSTANT CONCENTRATION:    0.000000                    0.000000    
                                        CONSTANT HEAD:    0.000000                  -0.2107256E-32
                                                WELLS:   0.4823890E+08                0.000000    
                               1ST/0TH ORDER REACTION:    0.000000                    0.000000    
                                MASS STORAGE (SOLUTE):   0.6160922E-27              -0.3391719E+08
                                MASS STORAGE (SORBED):   0.3841430E-24              -0.1418186E+08
                            ---------------------------------------------------------------------------
                                              [TOTAL]:   0.4823890E+08 KG           -0.4809905E+08 KG  

                                                          NET (IN - OUT):    139848.0    
                                                   DISCREPANCY (PERCENT):   0.2903280    
     1 CALLS TO GCG PACKAGE FOR TRANSPORT TIME STEP  67 IN FLOW TIME STEP   1 STRESS PERIOD   1
     4 TOTAL ITERATIONS



 >>>>>>>>>>>>>>>>>>>>>>>>>>>>>>>>>>>>>>>>>>>>>>>>>>>>>>>FOR COMPONENT NO. 01<<<<<<<<<<<<<<<<<<<<<<<<<<<<<<<<<<<<<<<<<<<<<<<<<<<<<<<


                                            -------------------------------------------
                                                      TRANSPORT STEP NO.   67
                                            -------------------------------------------

 TOTAL ELAPSED TIME SINCE BEGINNING OF SIMULATION =   4896.984    D   
 .....................................................................

                     CUMMULATIVE MASS BUDGETS AT END OF TRANSPORT STEP   67, TIME STEP    1, STRESS PERIOD    1
                     ------------------------------------------------------------------------------------------

                                                             IN                           OUT
                                                      ----------------             ----------------
                               CONSTANT CONCENTRATION:    0.000000                    0.000000    
                                        CONSTANT HEAD:    0.000000                  -0.2139688E-32
                                                WELLS:   0.4896979E+08                0.000000    
                               1ST/0TH ORDER REACTION:    0.000000                    0.000000    
                                MASS STORAGE (SOLUTE):   0.6160923E-27              -0.3442482E+08
                                MASS STORAGE (SORBED):   0.3841431E-24              -0.1439964E+08
                            ---------------------------------------------------------------------------
                                              [TOTAL]:   0.4896979E+08 KG           -0.4882447E+08 KG  

                                                          NET (IN - OUT):    145320.0    
                                                   DISCREPANCY (PERCENT):   0.2971954    
     1 CALLS TO GCG PACKAGE FOR TRANSPORT TIME STEP  68 IN FLOW TIME STEP   1 STRESS PERIOD   1
     4 TOTAL ITERATIONS



 >>>>>>>>>>>>>>>>>>>>>>>>>>>>>>>>>>>>>>>>>>>>>>>>>>>>>>>FOR COMPONENT NO. 01<<<<<<<<<<<<<<<<<<<<<<<<<<<<<<<<<<<<<<<<<<<<<<<<<<<<<<<


                                            -------------------------------------------
                                                      TRANSPORT STEP NO.   68
                                            -------------------------------------------

 TOTAL ELAPSED TIME SINCE BEGINNING OF SIMULATION =   4970.073    D   
 .....................................................................

                     CUMMULATIVE MASS BUDGETS AT END OF TRANSPORT STEP   68, TIME STEP    1, STRESS PERIOD    1
                     ------------------------------------------------------------------------------------------

                                                             IN                           OUT
                                                      ----------------             ----------------
                               CONSTANT CONCENTRATION:    0.000000                    0.000000    
                                        CONSTANT HEAD:    0.000000                  -0.2172134E-32
                                                WELLS:   0.4970068E+08                0.000000    
                               1ST/0TH ORDER REACTION:    0.000000                    0.000000    
                                MASS STORAGE (SOLUTE):   0.6160923E-27              -0.3493238E+08
                                MASS STORAGE (SORBED):   0.3841431E-24              -0.1461751E+08
                            ---------------------------------------------------------------------------
                                              [TOTAL]:   0.4970068E+08 KG           -0.4954989E+08 KG  

                                                          NET (IN - OUT):    150792.0    
                                                   DISCREPANCY (PERCENT):   0.3038612    
     1 CALLS TO GCG PACKAGE FOR TRANSPORT TIME STEP  69 IN FLOW TIME STEP   1 STRESS PERIOD   1
     4 TOTAL ITERATIONS



 >>>>>>>>>>>>>>>>>>>>>>>>>>>>>>>>>>>>>>>>>>>>>>>>>>>>>>>FOR COMPONENT NO. 01<<<<<<<<<<<<<<<<<<<<<<<<<<<<<<<<<<<<<<<<<<<<<<<<<<<<<<<


                                            -------------------------------------------
                                                      TRANSPORT STEP NO.   69
                                            -------------------------------------------

 TOTAL ELAPSED TIME SINCE BEGINNING OF SIMULATION =   5043.163    D   
 .....................................................................

                     CUMMULATIVE MASS BUDGETS AT END OF TRANSPORT STEP   69, TIME STEP    1, STRESS PERIOD    1
                     ------------------------------------------------------------------------------------------

                                                             IN                           OUT
                                                      ----------------             ----------------
                               CONSTANT CONCENTRATION:    0.000000                    0.000000    
                                        CONSTANT HEAD:    0.000000                  -0.2204590E-32
                                                WELLS:   0.5043157E+08                0.000000    
                               1ST/0TH ORDER REACTION:    0.000000                    0.000000    
                                MASS STORAGE (SOLUTE):   0.6160923E-27              -0.3543986E+08
                                MASS STORAGE (SORBED):   0.3841432E-24              -0.1483546E+08
                            ---------------------------------------------------------------------------
                                              [TOTAL]:   0.5043157E+08 KG           -0.5027532E+08 KG  

                                                          NET (IN - OUT):    156256.0    
                                                   DISCREPANCY (PERCENT):   0.3103184    
     1 CALLS TO GCG PACKAGE FOR TRANSPORT TIME STEP  70 IN FLOW TIME STEP   1 STRESS PERIOD   1
     4 TOTAL ITERATIONS



 >>>>>>>>>>>>>>>>>>>>>>>>>>>>>>>>>>>>>>>>>>>>>>>>>>>>>>>FOR COMPONENT NO. 01<<<<<<<<<<<<<<<<<<<<<<<<<<<<<<<<<<<<<<<<<<<<<<<<<<<<<<<


                                            -------------------------------------------
                                                      TRANSPORT STEP NO.   70
                                            -------------------------------------------

 TOTAL ELAPSED TIME SINCE BEGINNING OF SIMULATION =   5116.252    D   
 .....................................................................

                     CUMMULATIVE MASS BUDGETS AT END OF TRANSPORT STEP   70, TIME STEP    1, STRESS PERIOD    1
                     ------------------------------------------------------------------------------------------

                                                             IN                           OUT
                                                      ----------------             ----------------
                               CONSTANT CONCENTRATION:    0.000000                    0.000000    
                                        CONSTANT HEAD:    0.000000                  -0.2237067E-32
                                                WELLS:   0.5116246E+08                0.000000    
                               1ST/0TH ORDER REACTION:    0.000000                    0.000000    
                                MASS STORAGE (SOLUTE):   0.6160924E-27              -0.3594726E+08
                                MASS STORAGE (SORBED):   0.3841433E-24              -0.1505349E+08
                            ---------------------------------------------------------------------------
                                              [TOTAL]:   0.5116246E+08 KG           -0.5100075E+08 KG  

                                                          NET (IN - OUT):    161712.0    
                                                   DISCREPANCY (PERCENT):   0.3165758    
     1 CALLS TO GCG PACKAGE FOR TRANSPORT TIME STEP  71 IN FLOW TIME STEP   1 STRESS PERIOD   1
     4 TOTAL ITERATIONS



 >>>>>>>>>>>>>>>>>>>>>>>>>>>>>>>>>>>>>>>>>>>>>>>>>>>>>>>FOR COMPONENT NO. 01<<<<<<<<<<<<<<<<<<<<<<<<<<<<<<<<<<<<<<<<<<<<<<<<<<<<<<<


                                            -------------------------------------------
                                                      TRANSPORT STEP NO.   71
                                            -------------------------------------------

 TOTAL ELAPSED TIME SINCE BEGINNING OF SIMULATION =   5189.341    D   
 .....................................................................

                     CUMMULATIVE MASS BUDGETS AT END OF TRANSPORT STEP   71, TIME STEP    1, STRESS PERIOD    1
                     ------------------------------------------------------------------------------------------

                                                             IN                           OUT
                                                      ----------------             ----------------
                               CONSTANT CONCENTRATION:    0.000000                    0.000000    
                                        CONSTANT HEAD:    0.000000                  -0.2269558E-32
                                                WELLS:   0.5189336E+08                0.000000    
                               1ST/0TH ORDER REACTION:    0.000000                    0.000000    
                                MASS STORAGE (SOLUTE):   0.6160924E-27              -0.3645459E+08
                                MASS STORAGE (SORBED):   0.3841433E-24              -0.1527160E+08
                            ---------------------------------------------------------------------------
                                              [TOTAL]:   0.5189336E+08 KG           -0.5172619E+08 KG  

                                                          NET (IN - OUT):    167164.0    
                                                   DISCREPANCY (PERCENT):   0.3226495    
     1 CALLS TO GCG PACKAGE FOR TRANSPORT TIME STEP  72 IN FLOW TIME STEP   1 STRESS PERIOD   1
     4 TOTAL ITERATIONS



 >>>>>>>>>>>>>>>>>>>>>>>>>>>>>>>>>>>>>>>>>>>>>>>>>>>>>>>FOR COMPONENT NO. 01<<<<<<<<<<<<<<<<<<<<<<<<<<<<<<<<<<<<<<<<<<<<<<<<<<<<<<<


                                            -------------------------------------------
                                                      TRANSPORT STEP NO.   72
                                            -------------------------------------------

 TOTAL ELAPSED TIME SINCE BEGINNING OF SIMULATION =   5262.431    D   
 .....................................................................

                     CUMMULATIVE MASS BUDGETS AT END OF TRANSPORT STEP   72, TIME STEP    1, STRESS PERIOD    1
                     ------------------------------------------------------------------------------------------

                                                             IN                           OUT
                                                      ----------------             ----------------
                               CONSTANT CONCENTRATION:    0.000000                    0.000000    
                                        CONSTANT HEAD:    0.000000                  -0.2302189E-32
                                                WELLS:   0.5262425E+08                0.000000    
                               1ST/0TH ORDER REACTION:    0.000000                    0.000000    
                                MASS STORAGE (SOLUTE):   0.6160924E-27              -0.3696185E+08
                                MASS STORAGE (SORBED):   0.3841433E-24              -0.1548979E+08
                            ---------------------------------------------------------------------------
                                              [TOTAL]:   0.5262425E+08 KG           -0.5245164E+08 KG  

                                                          NET (IN - OUT):    172608.0    
                                                   DISCREPANCY (PERCENT):   0.3285397    
     1 CALLS TO GCG PACKAGE FOR TRANSPORT TIME STEP  73 IN FLOW TIME STEP   1 STRESS PERIOD   1
     4 TOTAL ITERATIONS



 >>>>>>>>>>>>>>>>>>>>>>>>>>>>>>>>>>>>>>>>>>>>>>>>>>>>>>>FOR COMPONENT NO. 01<<<<<<<<<<<<<<<<<<<<<<<<<<<<<<<<<<<<<<<<<<<<<<<<<<<<<<<


                                            -------------------------------------------
                                                      TRANSPORT STEP NO.   73
                                            -------------------------------------------

 TOTAL ELAPSED TIME SINCE BEGINNING OF SIMULATION =   5335.520    D   
 .....................................................................

                     CUMMULATIVE MASS BUDGETS AT END OF TRANSPORT STEP   73, TIME STEP    1, STRESS PERIOD    1
                     ------------------------------------------------------------------------------------------

                                                             IN                           OUT
                                                      ----------------             ----------------
                               CONSTANT CONCENTRATION:    0.000000                    0.000000    
                                        CONSTANT HEAD:    0.000000                  -0.2341742E-32
                                                WELLS:   0.5335514E+08                0.000000    
                               1ST/0TH ORDER REACTION:    0.000000                    0.000000    
                                MASS STORAGE (SOLUTE):   0.6160924E-27              -0.3746903E+08
                                MASS STORAGE (SORBED):   0.3841433E-24              -0.1570806E+08
                            ---------------------------------------------------------------------------
                                              [TOTAL]:   0.5335514E+08 KG           -0.5317709E+08 KG  

                                                          NET (IN - OUT):    178052.0    
                                                   DISCREPANCY (PERCENT):   0.3342688    
     1 CALLS TO GCG PACKAGE FOR TRANSPORT TIME STEP  74 IN FLOW TIME STEP   1 STRESS PERIOD   1
     4 TOTAL ITERATIONS



 >>>>>>>>>>>>>>>>>>>>>>>>>>>>>>>>>>>>>>>>>>>>>>>>>>>>>>>FOR COMPONENT NO. 01<<<<<<<<<<<<<<<<<<<<<<<<<<<<<<<<<<<<<<<<<<<<<<<<<<<<<<<


                                            -------------------------------------------
                                                      TRANSPORT STEP NO.   74
                                            -------------------------------------------

 TOTAL ELAPSED TIME SINCE BEGINNING OF SIMULATION =   5408.609    D   
 .....................................................................

                     CUMMULATIVE MASS BUDGETS AT END OF TRANSPORT STEP   74, TIME STEP    1, STRESS PERIOD    1
                     ------------------------------------------------------------------------------------------

                                                             IN                           OUT
                                                      ----------------             ----------------
                               CONSTANT CONCENTRATION:    0.000000                    0.000000    
                                        CONSTANT HEAD:    0.000000                  -0.2737899E-32
                                                WELLS:   0.5408603E+08                0.000000    
                               1ST/0TH ORDER REACTION:    0.000000                    0.000000    
                                MASS STORAGE (SOLUTE):   0.6160924E-27              -0.3797614E+08
                                MASS STORAGE (SORBED):   0.3841433E-24              -0.1592641E+08
                            ---------------------------------------------------------------------------
                                              [TOTAL]:   0.5408603E+08 KG           -0.5390255E+08 KG  

                                                          NET (IN - OUT):    183484.0    
                                                   DISCREPANCY (PERCENT):   0.3398211    
     1 CALLS TO GCG PACKAGE FOR TRANSPORT TIME STEP  75 IN FLOW TIME STEP   1 STRESS PERIOD   1
     4 TOTAL ITERATIONS



 >>>>>>>>>>>>>>>>>>>>>>>>>>>>>>>>>>>>>>>>>>>>>>>>>>>>>>>FOR COMPONENT NO. 01<<<<<<<<<<<<<<<<<<<<<<<<<<<<<<<<<<<<<<<<<<<<<<<<<<<<<<<


                                            -------------------------------------------
                                                      TRANSPORT STEP NO.   75
                                            -------------------------------------------

 TOTAL ELAPSED TIME SINCE BEGINNING OF SIMULATION =   5481.699    D   
 .....................................................................

                     CUMMULATIVE MASS BUDGETS AT END OF TRANSPORT STEP   75, TIME STEP    1, STRESS PERIOD    1
                     ------------------------------------------------------------------------------------------

                                                             IN                           OUT
                                                      ----------------             ----------------
                               CONSTANT CONCENTRATION:    0.000000                    0.000000    
                                        CONSTANT HEAD:    0.000000                  -0.2258782E-31
                                                WELLS:   0.5481692E+08                0.000000    
                               1ST/0TH ORDER REACTION:    0.000000                    0.000000    
                                MASS STORAGE (SOLUTE):   0.6160924E-27              -0.3848317E+08
                                MASS STORAGE (SORBED):   0.3841433E-24              -0.1614484E+08
                            ---------------------------------------------------------------------------
                                              [TOTAL]:   0.5481692E+08 KG           -0.5462801E+08 KG  

                                                          NET (IN - OUT):    188916.0    
                                                   DISCREPANCY (PERCENT):   0.3452257    
     1 CALLS TO GCG PACKAGE FOR TRANSPORT TIME STEP  76 IN FLOW TIME STEP   1 STRESS PERIOD   1
     4 TOTAL ITERATIONS



 >>>>>>>>>>>>>>>>>>>>>>>>>>>>>>>>>>>>>>>>>>>>>>>>>>>>>>>FOR COMPONENT NO. 01<<<<<<<<<<<<<<<<<<<<<<<<<<<<<<<<<<<<<<<<<<<<<<<<<<<<<<<


                                            -------------------------------------------
                                                      TRANSPORT STEP NO.   76
                                            -------------------------------------------

 TOTAL ELAPSED TIME SINCE BEGINNING OF SIMULATION =   5554.788    D   
 .....................................................................

                     CUMMULATIVE MASS BUDGETS AT END OF TRANSPORT STEP   76, TIME STEP    1, STRESS PERIOD    1
                     ------------------------------------------------------------------------------------------

                                                             IN                           OUT
                                                      ----------------             ----------------
                               CONSTANT CONCENTRATION:    0.000000                    0.000000    
                                        CONSTANT HEAD:    0.000000                  -0.1034622E-29
                                                WELLS:   0.5554782E+08                0.000000    
                               1ST/0TH ORDER REACTION:    0.000000                    0.000000    
                                MASS STORAGE (SOLUTE):   0.6160924E-27              -0.3899013E+08
                                MASS STORAGE (SORBED):   0.3841433E-24              -0.1636334E+08
                            ---------------------------------------------------------------------------
                                              [TOTAL]:   0.5554782E+08 KG           -0.5535347E+08 KG  

                                                          NET (IN - OUT):    194344.0    
                                                   DISCREPANCY (PERCENT):   0.3504811    
     1 CALLS TO GCG PACKAGE FOR TRANSPORT TIME STEP  77 IN FLOW TIME STEP   1 STRESS PERIOD   1
     4 TOTAL ITERATIONS



 >>>>>>>>>>>>>>>>>>>>>>>>>>>>>>>>>>>>>>>>>>>>>>>>>>>>>>>FOR COMPONENT NO. 01<<<<<<<<<<<<<<<<<<<<<<<<<<<<<<<<<<<<<<<<<<<<<<<<<<<<<<<


                                            -------------------------------------------
                                                      TRANSPORT STEP NO.   77
                                            -------------------------------------------

 TOTAL ELAPSED TIME SINCE BEGINNING OF SIMULATION =   5627.877    D   
 .....................................................................

                     CUMMULATIVE MASS BUDGETS AT END OF TRANSPORT STEP   77, TIME STEP    1, STRESS PERIOD    1
                     ------------------------------------------------------------------------------------------

                                                             IN                           OUT
                                                      ----------------             ----------------
                               CONSTANT CONCENTRATION:    0.000000                    0.000000    
                                        CONSTANT HEAD:    0.000000                  -0.4412990E-28
                                                WELLS:   0.5627871E+08                0.000000    
                               1ST/0TH ORDER REACTION:    0.000000                    0.000000    
                                MASS STORAGE (SOLUTE):   0.6160924E-27              -0.3949702E+08
                                MASS STORAGE (SORBED):   0.3841433E-24              -0.1658193E+08
                            ---------------------------------------------------------------------------
                                              [TOTAL]:   0.5627871E+08 KG           -0.5607894E+08 KG  

                                                          NET (IN - OUT):    199764.0    
                                                   DISCREPANCY (PERCENT):   0.3555859    
     1 CALLS TO GCG PACKAGE FOR TRANSPORT TIME STEP  78 IN FLOW TIME STEP   1 STRESS PERIOD   1
     4 TOTAL ITERATIONS



 >>>>>>>>>>>>>>>>>>>>>>>>>>>>>>>>>>>>>>>>>>>>>>>>>>>>>>>FOR COMPONENT NO. 01<<<<<<<<<<<<<<<<<<<<<<<<<<<<<<<<<<<<<<<<<<<<<<<<<<<<<<<


                                            -------------------------------------------
                                                      TRANSPORT STEP NO.   78
                                            -------------------------------------------

 TOTAL ELAPSED TIME SINCE BEGINNING OF SIMULATION =   5700.967    D   
 .....................................................................

                     CUMMULATIVE MASS BUDGETS AT END OF TRANSPORT STEP   78, TIME STEP    1, STRESS PERIOD    1
                     ------------------------------------------------------------------------------------------

                                                             IN                           OUT
                                                      ----------------             ----------------
                               CONSTANT CONCENTRATION:    0.000000                    0.000000    
                                        CONSTANT HEAD:    0.000000                  -0.1559675E-26
                                                WELLS:   0.5700960E+08                0.000000    
                               1ST/0TH ORDER REACTION:    0.000000                    0.000000    
                                MASS STORAGE (SOLUTE):   0.6160924E-27              -0.4000383E+08
                                MASS STORAGE (SORBED):   0.3841433E-24              -0.1680059E+08
                            ---------------------------------------------------------------------------
                                              [TOTAL]:   0.5700960E+08 KG           -0.5680442E+08 KG  

                                                          NET (IN - OUT):    205176.0    
                                                   DISCREPANCY (PERCENT):   0.3605461    
     1 CALLS TO GCG PACKAGE FOR TRANSPORT TIME STEP  79 IN FLOW TIME STEP   1 STRESS PERIOD   1
     4 TOTAL ITERATIONS



 >>>>>>>>>>>>>>>>>>>>>>>>>>>>>>>>>>>>>>>>>>>>>>>>>>>>>>>FOR COMPONENT NO. 01<<<<<<<<<<<<<<<<<<<<<<<<<<<<<<<<<<<<<<<<<<<<<<<<<<<<<<<


                                            -------------------------------------------
                                                      TRANSPORT STEP NO.   79
                                            -------------------------------------------

 TOTAL ELAPSED TIME SINCE BEGINNING OF SIMULATION =   5774.056    D   
 .....................................................................

                     CUMMULATIVE MASS BUDGETS AT END OF TRANSPORT STEP   79, TIME STEP    1, STRESS PERIOD    1
                     ------------------------------------------------------------------------------------------

                                                             IN                           OUT
                                                      ----------------             ----------------
                               CONSTANT CONCENTRATION:    0.000000                    0.000000    
                                        CONSTANT HEAD:    0.000000                  -0.4593216E-25
                                                WELLS:   0.5774049E+08                0.000000    
                               1ST/0TH ORDER REACTION:    0.000000                    0.000000    
                                MASS STORAGE (SOLUTE):   0.6160924E-27              -0.4051058E+08
                                MASS STORAGE (SORBED):   0.3841433E-24              -0.1701933E+08
                            ---------------------------------------------------------------------------
                                              [TOTAL]:   0.5774049E+08 KG           -0.5752990E+08 KG  

                                                          NET (IN - OUT):    210588.0    
                                                   DISCREPANCY (PERCENT):   0.3653809    
     1 CALLS TO GCG PACKAGE FOR TRANSPORT TIME STEP  80 IN FLOW TIME STEP   1 STRESS PERIOD   1
     4 TOTAL ITERATIONS



 >>>>>>>>>>>>>>>>>>>>>>>>>>>>>>>>>>>>>>>>>>>>>>>>>>>>>>>FOR COMPONENT NO. 01<<<<<<<<<<<<<<<<<<<<<<<<<<<<<<<<<<<<<<<<<<<<<<<<<<<<<<<


                                            -------------------------------------------
                                                      TRANSPORT STEP NO.   80
                                            -------------------------------------------

 TOTAL ELAPSED TIME SINCE BEGINNING OF SIMULATION =   5847.146    D   
 .....................................................................

                     CUMMULATIVE MASS BUDGETS AT END OF TRANSPORT STEP   80, TIME STEP    1, STRESS PERIOD    1
                     ------------------------------------------------------------------------------------------

                                                             IN                           OUT
                                                      ----------------             ----------------
                               CONSTANT CONCENTRATION:    0.000000                    0.000000    
                                        CONSTANT HEAD:    0.000000                  -0.1137786E-23
                                                WELLS:   0.5847138E+08                0.000000    
                               1ST/0TH ORDER REACTION:    0.000000                    0.000000    
                                MASS STORAGE (SOLUTE):   0.6160924E-27              -0.4101725E+08
                                MASS STORAGE (SORBED):   0.3841433E-24              -0.1723814E+08
                            ---------------------------------------------------------------------------
                                              [TOTAL]:   0.5847138E+08 KG           -0.5825539E+08 KG  

                                                          NET (IN - OUT):    215992.0    
                                                   DISCREPANCY (PERCENT):   0.3700813    
     1 CALLS TO GCG PACKAGE FOR TRANSPORT TIME STEP  81 IN FLOW TIME STEP   1 STRESS PERIOD   1
     4 TOTAL ITERATIONS



 >>>>>>>>>>>>>>>>>>>>>>>>>>>>>>>>>>>>>>>>>>>>>>>>>>>>>>>FOR COMPONENT NO. 01<<<<<<<<<<<<<<<<<<<<<<<<<<<<<<<<<<<<<<<<<<<<<<<<<<<<<<<


                                            -------------------------------------------
                                                      TRANSPORT STEP NO.   81
                                            -------------------------------------------

 TOTAL ELAPSED TIME SINCE BEGINNING OF SIMULATION =   5920.235    D   
 .....................................................................

                     CUMMULATIVE MASS BUDGETS AT END OF TRANSPORT STEP   81, TIME STEP    1, STRESS PERIOD    1
                     ------------------------------------------------------------------------------------------

                                                             IN                           OUT
                                                      ----------------             ----------------
                               CONSTANT CONCENTRATION:    0.000000                    0.000000    
                                        CONSTANT HEAD:    0.000000                  -0.2393446E-22
                                                WELLS:   0.5920228E+08                0.000000    
                               1ST/0TH ORDER REACTION:    0.000000                    0.000000    
                                MASS STORAGE (SOLUTE):   0.6160924E-27              -0.4152386E+08
                                MASS STORAGE (SORBED):   0.3841433E-24              -0.1745703E+08
                            ---------------------------------------------------------------------------
                                              [TOTAL]:   0.5920228E+08 KG           -0.5898088E+08 KG  

                                                          NET (IN - OUT):    221396.0    
                                                   DISCREPANCY (PERCENT):   0.3746659    
     1 CALLS TO GCG PACKAGE FOR TRANSPORT TIME STEP  82 IN FLOW TIME STEP   1 STRESS PERIOD   1
     4 TOTAL ITERATIONS



 >>>>>>>>>>>>>>>>>>>>>>>>>>>>>>>>>>>>>>>>>>>>>>>>>>>>>>>FOR COMPONENT NO. 01<<<<<<<<<<<<<<<<<<<<<<<<<<<<<<<<<<<<<<<<<<<<<<<<<<<<<<<


                                            -------------------------------------------
                                                      TRANSPORT STEP NO.   82
                                            -------------------------------------------

 TOTAL ELAPSED TIME SINCE BEGINNING OF SIMULATION =   5993.324    D   
 .....................................................................

                     CUMMULATIVE MASS BUDGETS AT END OF TRANSPORT STEP   82, TIME STEP    1, STRESS PERIOD    1
                     ------------------------------------------------------------------------------------------

                                                             IN                           OUT
                                                      ----------------             ----------------
                               CONSTANT CONCENTRATION:    0.000000                    0.000000    
                                        CONSTANT HEAD:    0.000000                  -0.4313347E-21
                                                WELLS:   0.5993317E+08                0.000000    
                               1ST/0TH ORDER REACTION:    0.000000                    0.000000    
                                MASS STORAGE (SOLUTE):   0.6160924E-27              -0.4203039E+08
                                MASS STORAGE (SORBED):   0.3841433E-24              -0.1767599E+08
                            ---------------------------------------------------------------------------
                                              [TOTAL]:   0.5993317E+08 KG           -0.5970638E+08 KG  

                                                          NET (IN - OUT):    226792.0    
                                                   DISCREPANCY (PERCENT):   0.3791255    
     1 CALLS TO GCG PACKAGE FOR TRANSPORT TIME STEP  83 IN FLOW TIME STEP   1 STRESS PERIOD   1
     4 TOTAL ITERATIONS



 >>>>>>>>>>>>>>>>>>>>>>>>>>>>>>>>>>>>>>>>>>>>>>>>>>>>>>>FOR COMPONENT NO. 01<<<<<<<<<<<<<<<<<<<<<<<<<<<<<<<<<<<<<<<<<<<<<<<<<<<<<<<


                                            -------------------------------------------
                                                      TRANSPORT STEP NO.   83
                                            -------------------------------------------

 TOTAL ELAPSED TIME SINCE BEGINNING OF SIMULATION =   6066.414    D   
 .....................................................................

                     CUMMULATIVE MASS BUDGETS AT END OF TRANSPORT STEP   83, TIME STEP    1, STRESS PERIOD    1
                     ------------------------------------------------------------------------------------------

                                                             IN                           OUT
                                                      ----------------             ----------------
                               CONSTANT CONCENTRATION:    0.000000                    0.000000    
                                        CONSTANT HEAD:    0.000000                  -0.6717239E-20
                                                WELLS:   0.6066406E+08                0.000000    
                               1ST/0TH ORDER REACTION:    0.000000                    0.000000    
                                MASS STORAGE (SOLUTE):   0.6160924E-27              -0.4253685E+08
                                MASS STORAGE (SORBED):   0.3841433E-24              -0.1789502E+08
                            ---------------------------------------------------------------------------
                                              [TOTAL]:   0.6066406E+08 KG           -0.6043188E+08 KG  

                                                          NET (IN - OUT):    232184.0    
                                                   DISCREPANCY (PERCENT):   0.3834712    
     1 CALLS TO GCG PACKAGE FOR TRANSPORT TIME STEP  84 IN FLOW TIME STEP   1 STRESS PERIOD   1
     4 TOTAL ITERATIONS



 >>>>>>>>>>>>>>>>>>>>>>>>>>>>>>>>>>>>>>>>>>>>>>>>>>>>>>>FOR COMPONENT NO. 01<<<<<<<<<<<<<<<<<<<<<<<<<<<<<<<<<<<<<<<<<<<<<<<<<<<<<<<


                                            -------------------------------------------
                                                      TRANSPORT STEP NO.   84
                                            -------------------------------------------

 TOTAL ELAPSED TIME SINCE BEGINNING OF SIMULATION =   6139.503    D   
 .....................................................................

                     CUMMULATIVE MASS BUDGETS AT END OF TRANSPORT STEP   84, TIME STEP    1, STRESS PERIOD    1
                     ------------------------------------------------------------------------------------------

                                                             IN                           OUT
                                                      ----------------             ----------------
                               CONSTANT CONCENTRATION:    0.000000                    0.000000    
                                        CONSTANT HEAD:    0.000000                  -0.9112088E-19
                                                WELLS:   0.6139495E+08                0.000000    
                               1ST/0TH ORDER REACTION:    0.000000                    0.000000    
                                MASS STORAGE (SOLUTE):   0.6160924E-27              -0.4304324E+08
                                MASS STORAGE (SORBED):   0.3841433E-24              -0.1811413E+08
                            ---------------------------------------------------------------------------
                                              [TOTAL]:   0.6139495E+08 KG           -0.6115738E+08 KG  

                                                          NET (IN - OUT):    237576.0    
                                                   DISCREPANCY (PERCENT):   0.3877136    
     1 CALLS TO GCG PACKAGE FOR TRANSPORT TIME STEP  85 IN FLOW TIME STEP   1 STRESS PERIOD   1
     4 TOTAL ITERATIONS



 >>>>>>>>>>>>>>>>>>>>>>>>>>>>>>>>>>>>>>>>>>>>>>>>>>>>>>>FOR COMPONENT NO. 01<<<<<<<<<<<<<<<<<<<<<<<<<<<<<<<<<<<<<<<<<<<<<<<<<<<<<<<


                                            -------------------------------------------
                                                      TRANSPORT STEP NO.   85
                                            -------------------------------------------

 TOTAL ELAPSED TIME SINCE BEGINNING OF SIMULATION =   6212.592    D   
 .....................................................................

                     CUMMULATIVE MASS BUDGETS AT END OF TRANSPORT STEP   85, TIME STEP    1, STRESS PERIOD    1
                     ------------------------------------------------------------------------------------------

                                                             IN                           OUT
                                                      ----------------             ----------------
                               CONSTANT CONCENTRATION:    0.000000                    0.000000    
                                        CONSTANT HEAD:    0.000000                  -0.1084808E-17
                                                WELLS:   0.6212584E+08                0.000000    
                               1ST/0TH ORDER REACTION:    0.000000                    0.000000    
                                MASS STORAGE (SOLUTE):   0.6160924E-27              -0.4354957E+08
                                MASS STORAGE (SORBED):   0.3841433E-24              -0.1833332E+08
                            ---------------------------------------------------------------------------
                                              [TOTAL]:   0.6212584E+08 KG           -0.6188288E+08 KG  

                                                          NET (IN - OUT):    242960.0    
                                                   DISCREPANCY (PERCENT):   0.3918434    
     1 CALLS TO GCG PACKAGE FOR TRANSPORT TIME STEP  86 IN FLOW TIME STEP   1 STRESS PERIOD   1
     4 TOTAL ITERATIONS



 >>>>>>>>>>>>>>>>>>>>>>>>>>>>>>>>>>>>>>>>>>>>>>>>>>>>>>>FOR COMPONENT NO. 01<<<<<<<<<<<<<<<<<<<<<<<<<<<<<<<<<<<<<<<<<<<<<<<<<<<<<<<


                                            -------------------------------------------
                                                      TRANSPORT STEP NO.   86
                                            -------------------------------------------

 TOTAL ELAPSED TIME SINCE BEGINNING OF SIMULATION =   6285.682    D   
 .....................................................................

                     CUMMULATIVE MASS BUDGETS AT END OF TRANSPORT STEP   86, TIME STEP    1, STRESS PERIOD    1
                     ------------------------------------------------------------------------------------------

                                                             IN                           OUT
                                                      ----------------             ----------------
                               CONSTANT CONCENTRATION:    0.000000                    0.000000    
                                        CONSTANT HEAD:    0.000000                  -0.1141443E-16
                                                WELLS:   0.6285674E+08                0.000000    
                               1ST/0TH ORDER REACTION:    0.000000                    0.000000    
                                MASS STORAGE (SOLUTE):   0.6160924E-27              -0.4405582E+08
                                MASS STORAGE (SORBED):   0.3841433E-24              -0.1855257E+08
                            ---------------------------------------------------------------------------
                                              [TOTAL]:   0.6285674E+08 KG           -0.6260840E+08 KG  

                                                          NET (IN - OUT):    248340.0    
                                                   DISCREPANCY (PERCENT):   0.3958709    
     1 CALLS TO GCG PACKAGE FOR TRANSPORT TIME STEP  87 IN FLOW TIME STEP   1 STRESS PERIOD   1
     4 TOTAL ITERATIONS



 >>>>>>>>>>>>>>>>>>>>>>>>>>>>>>>>>>>>>>>>>>>>>>>>>>>>>>>FOR COMPONENT NO. 01<<<<<<<<<<<<<<<<<<<<<<<<<<<<<<<<<<<<<<<<<<<<<<<<<<<<<<<


                                            -------------------------------------------
                                                      TRANSPORT STEP NO.   87
                                            -------------------------------------------

 TOTAL ELAPSED TIME SINCE BEGINNING OF SIMULATION =   6358.771    D   
 .....................................................................

                     CUMMULATIVE MASS BUDGETS AT END OF TRANSPORT STEP   87, TIME STEP    1, STRESS PERIOD    1
                     ------------------------------------------------------------------------------------------

                                                             IN                           OUT
                                                      ----------------             ----------------
                               CONSTANT CONCENTRATION:    0.000000                    0.000000    
                                        CONSTANT HEAD:    0.000000                  -0.1068252E-15
                                                WELLS:   0.6358763E+08                0.000000    
                               1ST/0TH ORDER REACTION:    0.000000                    0.000000    
                                MASS STORAGE (SOLUTE):   0.6160924E-27              -0.4456201E+08
                                MASS STORAGE (SORBED):   0.3841433E-24              -0.1877190E+08
                            ---------------------------------------------------------------------------
                                              [TOTAL]:   0.6358763E+08 KG           -0.6333391E+08 KG  

                                                          NET (IN - OUT):    253716.0    
                                                   DISCREPANCY (PERCENT):   0.3997998    
     1 CALLS TO GCG PACKAGE FOR TRANSPORT TIME STEP  88 IN FLOW TIME STEP   1 STRESS PERIOD   1
     4 TOTAL ITERATIONS



 >>>>>>>>>>>>>>>>>>>>>>>>>>>>>>>>>>>>>>>>>>>>>>>>>>>>>>>FOR COMPONENT NO. 01<<<<<<<<<<<<<<<<<<<<<<<<<<<<<<<<<<<<<<<<<<<<<<<<<<<<<<<


                                            -------------------------------------------
                                                      TRANSPORT STEP NO.   88
                                            -------------------------------------------

 TOTAL ELAPSED TIME SINCE BEGINNING OF SIMULATION =   6431.860    D   
 .....................................................................

                     CUMMULATIVE MASS BUDGETS AT END OF TRANSPORT STEP   88, TIME STEP    1, STRESS PERIOD    1
                     ------------------------------------------------------------------------------------------

                                                             IN                           OUT
                                                      ----------------             ----------------
                               CONSTANT CONCENTRATION:    0.000000                    0.000000    
                                        CONSTANT HEAD:    0.000000                  -0.8949447E-15
                                                WELLS:   0.6431852E+08                0.000000    
                               1ST/0TH ORDER REACTION:    0.000000                    0.000000    
                                MASS STORAGE (SOLUTE):   0.6160924E-27              -0.4506813E+08
                                MASS STORAGE (SORBED):   0.3841433E-24              -0.1899130E+08
                            ---------------------------------------------------------------------------
                                              [TOTAL]:   0.6431852E+08 KG           -0.6405943E+08 KG  

                                                          NET (IN - OUT):    259088.0    
                                                   DISCREPANCY (PERCENT):   0.4036332    
     1 CALLS TO GCG PACKAGE FOR TRANSPORT TIME STEP  89 IN FLOW TIME STEP   1 STRESS PERIOD   1
     4 TOTAL ITERATIONS



 >>>>>>>>>>>>>>>>>>>>>>>>>>>>>>>>>>>>>>>>>>>>>>>>>>>>>>>FOR COMPONENT NO. 01<<<<<<<<<<<<<<<<<<<<<<<<<<<<<<<<<<<<<<<<<<<<<<<<<<<<<<<


                                            -------------------------------------------
                                                      TRANSPORT STEP NO.   89
                                            -------------------------------------------

 TOTAL ELAPSED TIME SINCE BEGINNING OF SIMULATION =   6504.950    D   
 .....................................................................

                     CUMMULATIVE MASS BUDGETS AT END OF TRANSPORT STEP   89, TIME STEP    1, STRESS PERIOD    1
                     ------------------------------------------------------------------------------------------

                                                             IN                           OUT
                                                      ----------------             ----------------
                               CONSTANT CONCENTRATION:    0.000000                    0.000000    
                                        CONSTANT HEAD:    0.000000                  -0.6749796E-14
                                                WELLS:   0.6504941E+08                0.000000    
                               1ST/0TH ORDER REACTION:    0.000000                    0.000000    
                                MASS STORAGE (SOLUTE):   0.6160924E-27              -0.4557419E+08
                                MASS STORAGE (SORBED):   0.3841433E-24              -0.1921077E+08
                            ---------------------------------------------------------------------------
                                              [TOTAL]:   0.6504941E+08 KG           -0.6478496E+08 KG  

                                                          NET (IN - OUT):    264456.0    
                                                   DISCREPANCY (PERCENT):   0.4073744    
     1 CALLS TO GCG PACKAGE FOR TRANSPORT TIME STEP  90 IN FLOW TIME STEP   1 STRESS PERIOD   1
     4 TOTAL ITERATIONS



 >>>>>>>>>>>>>>>>>>>>>>>>>>>>>>>>>>>>>>>>>>>>>>>>>>>>>>>FOR COMPONENT NO. 01<<<<<<<<<<<<<<<<<<<<<<<<<<<<<<<<<<<<<<<<<<<<<<<<<<<<<<<


                                            -------------------------------------------
                                                      TRANSPORT STEP NO.   90
                                            -------------------------------------------

 TOTAL ELAPSED TIME SINCE BEGINNING OF SIMULATION =   6578.039    D   
 .....................................................................

                     CUMMULATIVE MASS BUDGETS AT END OF TRANSPORT STEP   90, TIME STEP    1, STRESS PERIOD    1
                     ------------------------------------------------------------------------------------------

                                                             IN                           OUT
                                                      ----------------             ----------------
                               CONSTANT CONCENTRATION:    0.000000                    0.000000    
                                        CONSTANT HEAD:    0.000000                  -0.4610282E-13
                                                WELLS:   0.6578030E+08                0.000000    
                               1ST/0TH ORDER REACTION:    0.000000                    0.000000    
                                MASS STORAGE (SOLUTE):   0.6160924E-27              -0.4608018E+08
                                MASS STORAGE (SORBED):   0.3841433E-24              -0.1943031E+08
                            ---------------------------------------------------------------------------
                                              [TOTAL]:   0.6578030E+08 KG           -0.6551048E+08 KG  

                                                          NET (IN - OUT):    269820.0    
                                                   DISCREPANCY (PERCENT):   0.4110266    
     1 CALLS TO GCG PACKAGE FOR TRANSPORT TIME STEP  91 IN FLOW TIME STEP   1 STRESS PERIOD   1
     4 TOTAL ITERATIONS



 >>>>>>>>>>>>>>>>>>>>>>>>>>>>>>>>>>>>>>>>>>>>>>>>>>>>>>>FOR COMPONENT NO. 01<<<<<<<<<<<<<<<<<<<<<<<<<<<<<<<<<<<<<<<<<<<<<<<<<<<<<<<


                                            -------------------------------------------
                                                      TRANSPORT STEP NO.   91
                                            -------------------------------------------

 TOTAL ELAPSED TIME SINCE BEGINNING OF SIMULATION =   6651.128    D   
 .....................................................................

                     CUMMULATIVE MASS BUDGETS AT END OF TRANSPORT STEP   91, TIME STEP    1, STRESS PERIOD    1
                     ------------------------------------------------------------------------------------------

                                                             IN                           OUT
                                                      ----------------             ----------------
                               CONSTANT CONCENTRATION:    0.000000                    0.000000    
                                        CONSTANT HEAD:    0.000000                  -0.2867028E-12
                                                WELLS:   0.6651120E+08                0.000000    
                               1ST/0TH ORDER REACTION:    0.000000                    0.000000    
                                MASS STORAGE (SOLUTE):   0.6160924E-27              -0.4658610E+08
                                MASS STORAGE (SORBED):   0.3841433E-24              -0.1964992E+08
                            ---------------------------------------------------------------------------
                                              [TOTAL]:   0.6651120E+08 KG           -0.6623602E+08 KG  

                                                          NET (IN - OUT):    275180.0    
                                                   DISCREPANCY (PERCENT):   0.4145925    
     1 CALLS TO GCG PACKAGE FOR TRANSPORT TIME STEP  92 IN FLOW TIME STEP   1 STRESS PERIOD   1
     4 TOTAL ITERATIONS



 >>>>>>>>>>>>>>>>>>>>>>>>>>>>>>>>>>>>>>>>>>>>>>>>>>>>>>>FOR COMPONENT NO. 01<<<<<<<<<<<<<<<<<<<<<<<<<<<<<<<<<<<<<<<<<<<<<<<<<<<<<<<


                                            -------------------------------------------
                                                      TRANSPORT STEP NO.   92
                                            -------------------------------------------

 TOTAL ELAPSED TIME SINCE BEGINNING OF SIMULATION =   6724.218    D   
 .....................................................................

                     CUMMULATIVE MASS BUDGETS AT END OF TRANSPORT STEP   92, TIME STEP    1, STRESS PERIOD    1
                     ------------------------------------------------------------------------------------------

                                                             IN                           OUT
                                                      ----------------             ----------------
                               CONSTANT CONCENTRATION:    0.000000                    0.000000    
                                        CONSTANT HEAD:    0.000000                  -0.1631441E-11
                                                WELLS:   0.6724209E+08                0.000000    
                               1ST/0TH ORDER REACTION:    0.000000                    0.000000    
                                MASS STORAGE (SOLUTE):   0.6160924E-27              -0.4709195E+08
                                MASS STORAGE (SORBED):   0.3841433E-24              -0.1986960E+08
                            ---------------------------------------------------------------------------
                                              [TOTAL]:   0.6724209E+08 KG           -0.6696155E+08 KG  

                                                          NET (IN - OUT):    280536.0    
                                                   DISCREPANCY (PERCENT):   0.4180751    
     1 CALLS TO GCG PACKAGE FOR TRANSPORT TIME STEP  93 IN FLOW TIME STEP   1 STRESS PERIOD   1
     4 TOTAL ITERATIONS



 >>>>>>>>>>>>>>>>>>>>>>>>>>>>>>>>>>>>>>>>>>>>>>>>>>>>>>>FOR COMPONENT NO. 01<<<<<<<<<<<<<<<<<<<<<<<<<<<<<<<<<<<<<<<<<<<<<<<<<<<<<<<


                                            -------------------------------------------
                                                      TRANSPORT STEP NO.   93
                                            -------------------------------------------

 TOTAL ELAPSED TIME SINCE BEGINNING OF SIMULATION =   6797.307    D   
 .....................................................................

                     CUMMULATIVE MASS BUDGETS AT END OF TRANSPORT STEP   93, TIME STEP    1, STRESS PERIOD    1
                     ------------------------------------------------------------------------------------------

                                                             IN                           OUT
                                                      ----------------             ----------------
                               CONSTANT CONCENTRATION:    0.000000                    0.000000    
                                        CONSTANT HEAD:    0.000000                  -0.8537148E-11
                                                WELLS:   0.6797298E+08                0.000000    
                               1ST/0TH ORDER REACTION:    0.000000                    0.000000    
                                MASS STORAGE (SOLUTE):   0.6160924E-27              -0.4759774E+08
                                MASS STORAGE (SORBED):   0.3841433E-24              -0.2008935E+08
                            ---------------------------------------------------------------------------
                                              [TOTAL]:   0.6797298E+08 KG           -0.6768709E+08 KG  

                                                          NET (IN - OUT):    285896.0    
                                                   DISCREPANCY (PERCENT):   0.4214888    
     1 CALLS TO GCG PACKAGE FOR TRANSPORT TIME STEP  94 IN FLOW TIME STEP   1 STRESS PERIOD   1
     4 TOTAL ITERATIONS



 >>>>>>>>>>>>>>>>>>>>>>>>>>>>>>>>>>>>>>>>>>>>>>>>>>>>>>>FOR COMPONENT NO. 01<<<<<<<<<<<<<<<<<<<<<<<<<<<<<<<<<<<<<<<<<<<<<<<<<<<<<<<


                                            -------------------------------------------
                                                      TRANSPORT STEP NO.   94
                                            -------------------------------------------

 TOTAL ELAPSED TIME SINCE BEGINNING OF SIMULATION =   6870.396    D   
 .....................................................................

                     CUMMULATIVE MASS BUDGETS AT END OF TRANSPORT STEP   94, TIME STEP    1, STRESS PERIOD    1
                     ------------------------------------------------------------------------------------------

                                                             IN                           OUT
                                                      ----------------             ----------------
                               CONSTANT CONCENTRATION:    0.000000                    0.000000    
                                        CONSTANT HEAD:    0.000000                  -0.4125579E-10
                                                WELLS:   0.6870388E+08                0.000000    
                               1ST/0TH ORDER REACTION:    0.000000                    0.000000    
                                MASS STORAGE (SOLUTE):   0.6160924E-27              -0.4810346E+08
                                MASS STORAGE (SORBED):   0.3841433E-24              -0.2030917E+08
                            ---------------------------------------------------------------------------
                                              [TOTAL]:   0.6870388E+08 KG           -0.6841263E+08 KG  

                                                          NET (IN - OUT):    291248.0    
                                                   DISCREPANCY (PERCENT):   0.4248183    
     1 CALLS TO GCG PACKAGE FOR TRANSPORT TIME STEP  95 IN FLOW TIME STEP   1 STRESS PERIOD   1
     4 TOTAL ITERATIONS



 >>>>>>>>>>>>>>>>>>>>>>>>>>>>>>>>>>>>>>>>>>>>>>>>>>>>>>>FOR COMPONENT NO. 01<<<<<<<<<<<<<<<<<<<<<<<<<<<<<<<<<<<<<<<<<<<<<<<<<<<<<<<


                                            -------------------------------------------
                                                      TRANSPORT STEP NO.   95
                                            -------------------------------------------

 TOTAL ELAPSED TIME SINCE BEGINNING OF SIMULATION =   6943.486    D   
 .....................................................................

                     CUMMULATIVE MASS BUDGETS AT END OF TRANSPORT STEP   95, TIME STEP    1, STRESS PERIOD    1
                     ------------------------------------------------------------------------------------------

                                                             IN                           OUT
                                                      ----------------             ----------------
                               CONSTANT CONCENTRATION:    0.000000                    0.000000    
                                        CONSTANT HEAD:    0.000000                  -0.1849935E-09
                                                WELLS:   0.6943478E+08                0.000000    
                               1ST/0TH ORDER REACTION:    0.000000                    0.000000    
                                MASS STORAGE (SOLUTE):   0.6160924E-27              -0.4860912E+08
                                MASS STORAGE (SORBED):   0.3841433E-24              -0.2052905E+08
                            ---------------------------------------------------------------------------
                                              [TOTAL]:   0.6943478E+08 KG           -0.6913818E+08 KG  

                                                          NET (IN - OUT):    296600.0    
                                                   DISCREPANCY (PERCENT):   0.4280778    
     1 CALLS TO GCG PACKAGE FOR TRANSPORT TIME STEP  96 IN FLOW TIME STEP   1 STRESS PERIOD   1
     4 TOTAL ITERATIONS



 >>>>>>>>>>>>>>>>>>>>>>>>>>>>>>>>>>>>>>>>>>>>>>>>>>>>>>>FOR COMPONENT NO. 01<<<<<<<<<<<<<<<<<<<<<<<<<<<<<<<<<<<<<<<<<<<<<<<<<<<<<<<


                                            -------------------------------------------
                                                      TRANSPORT STEP NO.   96
                                            -------------------------------------------

 TOTAL ELAPSED TIME SINCE BEGINNING OF SIMULATION =   7016.575    D   
 .....................................................................

                     CUMMULATIVE MASS BUDGETS AT END OF TRANSPORT STEP   96, TIME STEP    1, STRESS PERIOD    1
                     ------------------------------------------------------------------------------------------

                                                             IN                           OUT
                                                      ----------------             ----------------
                               CONSTANT CONCENTRATION:    0.000000                    0.000000    
                                        CONSTANT HEAD:    0.000000                  -0.7727777E-09
                                                WELLS:   0.7016567E+08                0.000000    
                               1ST/0TH ORDER REACTION:    0.000000                    0.000000    
                                MASS STORAGE (SOLUTE):   0.6160924E-27              -0.4911472E+08
                                MASS STORAGE (SORBED):   0.3841433E-24              -0.2074901E+08
                            ---------------------------------------------------------------------------
                                              [TOTAL]:   0.7016567E+08 KG           -0.6986373E+08 KG  

                                                          NET (IN - OUT):    301944.0    
                                                   DISCREPANCY (PERCENT):   0.4312580    
     1 CALLS TO GCG PACKAGE FOR TRANSPORT TIME STEP  97 IN FLOW TIME STEP   1 STRESS PERIOD   1
     4 TOTAL ITERATIONS



 >>>>>>>>>>>>>>>>>>>>>>>>>>>>>>>>>>>>>>>>>>>>>>>>>>>>>>>FOR COMPONENT NO. 01<<<<<<<<<<<<<<<<<<<<<<<<<<<<<<<<<<<<<<<<<<<<<<<<<<<<<<<


                                            -------------------------------------------
                                                      TRANSPORT STEP NO.   97
                                            -------------------------------------------

 TOTAL ELAPSED TIME SINCE BEGINNING OF SIMULATION =   7089.665    D   
 .....................................................................

                     CUMMULATIVE MASS BUDGETS AT END OF TRANSPORT STEP   97, TIME STEP    1, STRESS PERIOD    1
                     ------------------------------------------------------------------------------------------

                                                             IN                           OUT
                                                      ----------------             ----------------
                               CONSTANT CONCENTRATION:    0.000000                    0.000000    
                                        CONSTANT HEAD:    0.000000                  -0.3019130E-08
                                                WELLS:   0.7089657E+08                0.000000    
                               1ST/0TH ORDER REACTION:    0.000000                    0.000000    
                                MASS STORAGE (SOLUTE):   0.6160924E-27              -0.4962025E+08
                                MASS STORAGE (SORBED):   0.3841433E-24              -0.2096903E+08
                            ---------------------------------------------------------------------------
                                              [TOTAL]:   0.7089657E+08 KG           -0.7058928E+08 KG  

                                                          NET (IN - OUT):    307288.0    
                                                   DISCREPANCY (PERCENT):   0.4343728    
     1 CALLS TO GCG PACKAGE FOR TRANSPORT TIME STEP  98 IN FLOW TIME STEP   1 STRESS PERIOD   1
     4 TOTAL ITERATIONS



 >>>>>>>>>>>>>>>>>>>>>>>>>>>>>>>>>>>>>>>>>>>>>>>>>>>>>>>FOR COMPONENT NO. 01<<<<<<<<<<<<<<<<<<<<<<<<<<<<<<<<<<<<<<<<<<<<<<<<<<<<<<<


                                            -------------------------------------------
                                                      TRANSPORT STEP NO.   98
                                            -------------------------------------------

 TOTAL ELAPSED TIME SINCE BEGINNING OF SIMULATION =   7162.754    D   
 .....................................................................

                     CUMMULATIVE MASS BUDGETS AT END OF TRANSPORT STEP   98, TIME STEP    1, STRESS PERIOD    1
                     ------------------------------------------------------------------------------------------

                                                             IN                           OUT
                                                      ----------------             ----------------
                               CONSTANT CONCENTRATION:    0.000000                    0.000000    
                                        CONSTANT HEAD:    0.000000                  -0.1107594E-07
                                                WELLS:   0.7162746E+08                0.000000    
                               1ST/0TH ORDER REACTION:    0.000000                    0.000000    
                                MASS STORAGE (SOLUTE):   0.6160924E-27              -0.5012572E+08
                                MASS STORAGE (SORBED):   0.3841433E-24              -0.2118912E+08
                            ---------------------------------------------------------------------------
                                              [TOTAL]:   0.7162746E+08 KG           -0.7131483E+08 KG  

                                                          NET (IN - OUT):    312632.0    
                                                   DISCREPANCY (PERCENT):   0.4374240    
     1 CALLS TO GCG PACKAGE FOR TRANSPORT TIME STEP  99 IN FLOW TIME STEP   1 STRESS PERIOD   1
     4 TOTAL ITERATIONS



 >>>>>>>>>>>>>>>>>>>>>>>>>>>>>>>>>>>>>>>>>>>>>>>>>>>>>>>FOR COMPONENT NO. 01<<<<<<<<<<<<<<<<<<<<<<<<<<<<<<<<<<<<<<<<<<<<<<<<<<<<<<<


                                            -------------------------------------------
                                                      TRANSPORT STEP NO.   99
                                            -------------------------------------------

 TOTAL ELAPSED TIME SINCE BEGINNING OF SIMULATION =   7235.843    D   
 .....................................................................

                     CUMMULATIVE MASS BUDGETS AT END OF TRANSPORT STEP   99, TIME STEP    1, STRESS PERIOD    1
                     ------------------------------------------------------------------------------------------

                                                             IN                           OUT
                                                      ----------------             ----------------
                               CONSTANT CONCENTRATION:    0.000000                    0.000000    
                                        CONSTANT HEAD:    0.000000                  -0.3826070E-07
                                                WELLS:   0.7235836E+08                0.000000    
                               1ST/0TH ORDER REACTION:    0.000000                    0.000000    
                                MASS STORAGE (SOLUTE):   0.6160924E-27              -0.5063112E+08
                                MASS STORAGE (SORBED):   0.3841433E-24              -0.2140927E+08
                            ---------------------------------------------------------------------------
                                              [TOTAL]:   0.7235836E+08 KG           -0.7204039E+08 KG  

                                                          NET (IN - OUT):    317968.0    
                                                   DISCREPANCY (PERCENT):   0.4404027    
     1 CALLS TO GCG PACKAGE FOR TRANSPORT TIME STEP 100 IN FLOW TIME STEP   1 STRESS PERIOD   1
     4 TOTAL ITERATIONS
  MAXIMUM CONCENTRATION CHANGES FOR EACH ITERATION:
  MAX. CHANGE LAYER,ROW,COL MAX. CHANGE LAYER,ROW,COL MAX. CHANGE LAYER,ROW,COL MAX. CHANGE LAYER,ROW,COL MAX. CHANGE LAYER,ROW,COL
 ------------------------------------------------------------------------------------------------------------------------------------
   0.1498     (  1, 26, 16)  0.1372E-02 (  1, 25, 17)  0.1185E-04 (  1, 24, 18)  0.1043E-06 (  1, 23, 19)



 >>>>>>>>>>>>>>>>>>>>>>>>>>>>>>>>>>>>>>>>>>>>>>>>>>>>>>>FOR COMPONENT NO. 01<<<<<<<<<<<<<<<<<<<<<<<<<<<<<<<<<<<<<<<<<<<<<<<<<<<<<<<


                                            -------------------------------------------
                                                      TRANSPORT STEP NO.  100
                                            -------------------------------------------

 TOTAL ELAPSED TIME SINCE BEGINNING OF SIMULATION =   7300.000    D   
 .....................................................................

                     CUMMULATIVE MASS BUDGETS AT END OF TRANSPORT STEP  100, TIME STEP    1, STRESS PERIOD    1
                     ------------------------------------------------------------------------------------------

                                                             IN                           OUT
                                                      ----------------             ----------------
                               CONSTANT CONCENTRATION:    0.000000                    0.000000    
                                        CONSTANT HEAD:    0.000000                  -0.1012720E-06
                                                WELLS:   0.7299993E+08                0.000000    
                               1ST/0TH ORDER REACTION:    0.000000                    0.000000    
                                MASS STORAGE (SOLUTE):    3334.927                  -0.5107866E+08
                                MASS STORAGE (SORBED):    1330.628                  -0.2160387E+08
                            ---------------------------------------------------------------------------
                                              [TOTAL]:   0.7300459E+08 KG           -0.7268253E+08 KG  

                                                          NET (IN - OUT):    322064.0    
                                                   DISCREPANCY (PERCENT):   0.4421310    


                                   ++++++++++++++++++++++++++++++++++++++++++++++++++++++++++++++
                                                       STRESS PERIOD NO.  002
                                   ++++++++++++++++++++++++++++++++++++++++++++++++++++++++++++++


 LENGTH OF CURRENT STRESS PERIOD =   7300.000    
 NUMBER OF TIME STEPS FOR CURRENT STRESS PERIOD =    1
 TIME STEP MULTIPLIER USED IN FLOW SOLUTION =   1.000000    

 ***Type of Transport Simulation is TRANSIENT

 USER-SPECIFIED TRANSPORT STEPSIZE =   0.000000    D   
 MAXIMUM NUMBER OF TRANSPORT STEPS ALLOWED  IN ONE FLOW TIME STEP =     50000
 MULTIPLIER FOR SUCCESSIVE TRANSPORT STEPS  [USED IN IMPLICIT SCHEMES] =     1.000
 MAXIMUM TRANSPORT STEP SIZE  [USED IN IMPLICIT SCHEMES] =   0.000000    D   

       NO    LAYER   ROW   COLUMN   CONCENTRATION       TYPE            COMPONENT


                                          ================================================
                                                         TIME STEP NO.  001
                                          ================================================

 FROM TIME =   7300.0     TO    14600.    



     1 CALLS TO GCG PACKAGE FOR TRANSPORT TIME STEP   1 IN FLOW TIME STEP   1 STRESS PERIOD   2
     4 TOTAL ITERATIONS



 >>>>>>>>>>>>>>>>>>>>>>>>>>>>>>>>>>>>>>>>>>>>>>>>>>>>>>>FOR COMPONENT NO. 01<<<<<<<<<<<<<<<<<<<<<<<<<<<<<<<<<<<<<<<<<<<<<<<<<<<<<<<


                                            -------------------------------------------
                                                      TRANSPORT STEP NO.    1
                                            -------------------------------------------

 TOTAL ELAPSED TIME SINCE BEGINNING OF SIMULATION =   7373.089    D   
 .....................................................................

                     CUMMULATIVE MASS BUDGETS AT END OF TRANSPORT STEP    1, TIME STEP    1, STRESS PERIOD    2
                     ------------------------------------------------------------------------------------------

                                                             IN                           OUT
                                                      ----------------             ----------------
                               CONSTANT CONCENTRATION:    0.000000                    0.000000    
                                        CONSTANT HEAD:    0.000000                  -0.3213846E-06
                                                WELLS:   0.7299993E+08                0.000000    
                               1ST/0TH ORDER REACTION:    0.000000                    0.000000    
                                MASS STORAGE (SOLUTE):    552040.2                  -0.5158291E+08
                                MASS STORAGE (SORBED):    184354.5                  -0.2182376E+08
                            ---------------------------------------------------------------------------
                                              [TOTAL]:   0.7373632E+08 KG           -0.7340667E+08 KG  

                                                          NET (IN - OUT):    329648.0    
                                                   DISCREPANCY (PERCENT):   0.4480648    
     1 CALLS TO GCG PACKAGE FOR TRANSPORT TIME STEP   2 IN FLOW TIME STEP   1 STRESS PERIOD   2
     4 TOTAL ITERATIONS



 >>>>>>>>>>>>>>>>>>>>>>>>>>>>>>>>>>>>>>>>>>>>>>>>>>>>>>>FOR COMPONENT NO. 01<<<<<<<<<<<<<<<<<<<<<<<<<<<<<<<<<<<<<<<<<<<<<<<<<<<<<<<


                                            -------------------------------------------
                                                      TRANSPORT STEP NO.    2
                                            -------------------------------------------

 TOTAL ELAPSED TIME SINCE BEGINNING OF SIMULATION =   7446.179    D   
 .....................................................................

                     CUMMULATIVE MASS BUDGETS AT END OF TRANSPORT STEP    2, TIME STEP    1, STRESS PERIOD    2
                     ------------------------------------------------------------------------------------------

                                                             IN                           OUT
                                                      ----------------             ----------------
                               CONSTANT CONCENTRATION:    0.000000                    0.000000    
                                        CONSTANT HEAD:    0.000000                  -0.9614555E-06
                                                WELLS:   0.7299993E+08                0.000000    
                               1ST/0TH ORDER REACTION:    0.000000                    0.000000    
                                MASS STORAGE (SOLUTE):    1094396.                  -0.5208663E+08
                                MASS STORAGE (SORBED):    371156.2                  -0.2204354E+08
                            ---------------------------------------------------------------------------
                                              [TOTAL]:   0.7446548E+08 KG           -0.7413017E+08 KG  

                                                          NET (IN - OUT):    335312.0    
                                                   DISCREPANCY (PERCENT):   0.4513080    
     1 CALLS TO GCG PACKAGE FOR TRANSPORT TIME STEP   3 IN FLOW TIME STEP   1 STRESS PERIOD   2
     4 TOTAL ITERATIONS



 >>>>>>>>>>>>>>>>>>>>>>>>>>>>>>>>>>>>>>>>>>>>>>>>>>>>>>>FOR COMPONENT NO. 01<<<<<<<<<<<<<<<<<<<<<<<<<<<<<<<<<<<<<<<<<<<<<<<<<<<<<<<


                                            -------------------------------------------
                                                      TRANSPORT STEP NO.    3
                                            -------------------------------------------

 TOTAL ELAPSED TIME SINCE BEGINNING OF SIMULATION =   7519.268    D   
 .....................................................................

                     CUMMULATIVE MASS BUDGETS AT END OF TRANSPORT STEP    3, TIME STEP    1, STRESS PERIOD    2
                     ------------------------------------------------------------------------------------------

                                                             IN                           OUT
                                                      ----------------             ----------------
                               CONSTANT CONCENTRATION:    0.000000                    0.000000    
                                        CONSTANT HEAD:    0.000000                  -0.2735866E-05
                                                WELLS:   0.7299993E+08                0.000000    
                               1ST/0TH ORDER REACTION:    0.000000                    0.000000    
                                MASS STORAGE (SOLUTE):    1632752.                  -0.5258981E+08
                                MASS STORAGE (SORBED):    560336.2                  -0.2226320E+08
                            ---------------------------------------------------------------------------
                                              [TOTAL]:   0.7519302E+08 KG           -0.7485302E+08 KG  

                                                          NET (IN - OUT):    340000.0    
                                                   DISCREPANCY (PERCENT):   0.4531943    
     1 CALLS TO GCG PACKAGE FOR TRANSPORT TIME STEP   4 IN FLOW TIME STEP   1 STRESS PERIOD   2
     4 TOTAL ITERATIONS



 >>>>>>>>>>>>>>>>>>>>>>>>>>>>>>>>>>>>>>>>>>>>>>>>>>>>>>>FOR COMPONENT NO. 01<<<<<<<<<<<<<<<<<<<<<<<<<<<<<<<<<<<<<<<<<<<<<<<<<<<<<<<


                                            -------------------------------------------
                                                      TRANSPORT STEP NO.    4
                                            -------------------------------------------

 TOTAL ELAPSED TIME SINCE BEGINNING OF SIMULATION =   7592.357    D   
 .....................................................................

                     CUMMULATIVE MASS BUDGETS AT END OF TRANSPORT STEP    4, TIME STEP    1, STRESS PERIOD    2
                     ------------------------------------------------------------------------------------------

                                                             IN                           OUT
                                                      ----------------             ----------------
                               CONSTANT CONCENTRATION:    0.000000                    0.000000    
                                        CONSTANT HEAD:    0.000000                  -0.7429783E-05
                                                WELLS:   0.7299993E+08                0.000000    
                               1ST/0TH ORDER REACTION:    0.000000                    0.000000    
                                MASS STORAGE (SOLUTE):    2168072.                  -0.5309239E+08
                                MASS STORAGE (SORBED):    751277.4                  -0.2248273E+08
                            ---------------------------------------------------------------------------
                                              [TOTAL]:   0.7591928E+08 KG           -0.7557512E+08 KG  

                                                          NET (IN - OUT):    344160.0    
                                                   DISCREPANCY (PERCENT):   0.4543534    
     1 CALLS TO GCG PACKAGE FOR TRANSPORT TIME STEP   5 IN FLOW TIME STEP   1 STRESS PERIOD   2
     3 TOTAL ITERATIONS



 >>>>>>>>>>>>>>>>>>>>>>>>>>>>>>>>>>>>>>>>>>>>>>>>>>>>>>>FOR COMPONENT NO. 01<<<<<<<<<<<<<<<<<<<<<<<<<<<<<<<<<<<<<<<<<<<<<<<<<<<<<<<


                                            -------------------------------------------
                                                      TRANSPORT STEP NO.    5
                                            -------------------------------------------

 TOTAL ELAPSED TIME SINCE BEGINNING OF SIMULATION =   7665.447    D   
 .....................................................................

                     CUMMULATIVE MASS BUDGETS AT END OF TRANSPORT STEP    5, TIME STEP    1, STRESS PERIOD    2
                     ------------------------------------------------------------------------------------------

                                                             IN                           OUT
                                                      ----------------             ----------------
                               CONSTANT CONCENTRATION:    0.000000                    0.000000    
                                        CONSTANT HEAD:    0.000000                  -0.1932562E-04
                                                WELLS:   0.7299993E+08                0.000000    
                               1ST/0TH ORDER REACTION:    0.000000                    0.000000    
                                MASS STORAGE (SOLUTE):    2700916.                  -0.5359436E+08
                                MASS STORAGE (SORBED):    943556.1                  -0.2270211E+08
                            ---------------------------------------------------------------------------
                                              [TOTAL]:   0.7664440E+08 KG           -0.7629646E+08 KG  

                                                          NET (IN - OUT):    347936.0    
                                                   DISCREPANCY (PERCENT):   0.4549942    
     1 CALLS TO GCG PACKAGE FOR TRANSPORT TIME STEP   6 IN FLOW TIME STEP   1 STRESS PERIOD   2
     3 TOTAL ITERATIONS



 >>>>>>>>>>>>>>>>>>>>>>>>>>>>>>>>>>>>>>>>>>>>>>>>>>>>>>>FOR COMPONENT NO. 01<<<<<<<<<<<<<<<<<<<<<<<<<<<<<<<<<<<<<<<<<<<<<<<<<<<<<<<


                                            -------------------------------------------
                                                      TRANSPORT STEP NO.    6
                                            -------------------------------------------

 TOTAL ELAPSED TIME SINCE BEGINNING OF SIMULATION =   7738.536    D   
 .....................................................................

                     CUMMULATIVE MASS BUDGETS AT END OF TRANSPORT STEP    6, TIME STEP    1, STRESS PERIOD    2
                     ------------------------------------------------------------------------------------------

                                                             IN                           OUT
                                                      ----------------             ----------------
                               CONSTANT CONCENTRATION:    0.000000                    0.000000    
                                        CONSTANT HEAD:    0.000000                  -0.4829729E-04
                                                WELLS:   0.7299993E+08                0.000000    
                               1ST/0TH ORDER REACTION:    0.000000                    0.000000    
                                MASS STORAGE (SOLUTE):    3231618.                  -0.5409569E+08
                                MASS STORAGE (SORBED):    1136912.                  -0.2292133E+08
                            ---------------------------------------------------------------------------
                                              [TOTAL]:   0.7736846E+08 KG           -0.7701702E+08 KG  

                                                          NET (IN - OUT):    351432.0    
                                                   DISCREPANCY (PERCENT):   0.4552656    
     1 CALLS TO GCG PACKAGE FOR TRANSPORT TIME STEP   7 IN FLOW TIME STEP   1 STRESS PERIOD   2
     3 TOTAL ITERATIONS



 >>>>>>>>>>>>>>>>>>>>>>>>>>>>>>>>>>>>>>>>>>>>>>>>>>>>>>>FOR COMPONENT NO. 01<<<<<<<<<<<<<<<<<<<<<<<<<<<<<<<<<<<<<<<<<<<<<<<<<<<<<<<


                                            -------------------------------------------
                                                      TRANSPORT STEP NO.    7
                                            -------------------------------------------

 TOTAL ELAPSED TIME SINCE BEGINNING OF SIMULATION =   7811.625    D   
 .....................................................................

                     CUMMULATIVE MASS BUDGETS AT END OF TRANSPORT STEP    7, TIME STEP    1, STRESS PERIOD    2
                     ------------------------------------------------------------------------------------------

                                                             IN                           OUT
                                                      ----------------             ----------------
                               CONSTANT CONCENTRATION:    0.000000                    0.000000    
                                        CONSTANT HEAD:    0.000000                  -0.1160001E-03
                                                WELLS:   0.7299993E+08                0.000000    
                               1ST/0TH ORDER REACTION:    0.000000                    0.000000    
                                MASS STORAGE (SOLUTE):    3760403.                  -0.5459636E+08
                                MASS STORAGE (SORBED):    1331140.                  -0.2314039E+08
                            ---------------------------------------------------------------------------
                                              [TOTAL]:   0.7809147E+08 KG           -0.7773675E+08 KG  

                                                          NET (IN - OUT):    354720.0    
                                                   DISCREPANCY (PERCENT):   0.4552705    
     1 CALLS TO GCG PACKAGE FOR TRANSPORT TIME STEP   8 IN FLOW TIME STEP   1 STRESS PERIOD   2
     3 TOTAL ITERATIONS



 >>>>>>>>>>>>>>>>>>>>>>>>>>>>>>>>>>>>>>>>>>>>>>>>>>>>>>>FOR COMPONENT NO. 01<<<<<<<<<<<<<<<<<<<<<<<<<<<<<<<<<<<<<<<<<<<<<<<<<<<<<<<


                                            -------------------------------------------
                                                      TRANSPORT STEP NO.    8
                                            -------------------------------------------

 TOTAL ELAPSED TIME SINCE BEGINNING OF SIMULATION =   7884.715    D   
 .....................................................................

                     CUMMULATIVE MASS BUDGETS AT END OF TRANSPORT STEP    8, TIME STEP    1, STRESS PERIOD    2
                     ------------------------------------------------------------------------------------------

                                                             IN                           OUT
                                                      ----------------             ----------------
                               CONSTANT CONCENTRATION:    0.000000                    0.000000    
                                        CONSTANT HEAD:    0.000000                  -0.2691563E-03
                                                WELLS:   0.7299993E+08                0.000000    
                               1ST/0TH ORDER REACTION:    0.000000                    0.000000    
                                MASS STORAGE (SOLUTE):    4287420.                  -0.5509633E+08
                                MASS STORAGE (SORBED):    1526092.                  -0.2335928E+08
                            ---------------------------------------------------------------------------
                                              [TOTAL]:   0.7881344E+08 KG           -0.7845560E+08 KG  

                                                          NET (IN - OUT):    357840.0    
                                                   DISCREPANCY (PERCENT):   0.4550673    
     1 CALLS TO GCG PACKAGE FOR TRANSPORT TIME STEP   9 IN FLOW TIME STEP   1 STRESS PERIOD   2
     3 TOTAL ITERATIONS



 >>>>>>>>>>>>>>>>>>>>>>>>>>>>>>>>>>>>>>>>>>>>>>>>>>>>>>>FOR COMPONENT NO. 01<<<<<<<<<<<<<<<<<<<<<<<<<<<<<<<<<<<<<<<<<<<<<<<<<<<<<<<


                                            -------------------------------------------
                                                      TRANSPORT STEP NO.    9
                                            -------------------------------------------

 TOTAL ELAPSED TIME SINCE BEGINNING OF SIMULATION =   7957.804    D   
 .....................................................................

                     CUMMULATIVE MASS BUDGETS AT END OF TRANSPORT STEP    9, TIME STEP    1, STRESS PERIOD    2
                     ------------------------------------------------------------------------------------------

                                                             IN                           OUT
                                                      ----------------             ----------------
                               CONSTANT CONCENTRATION:    0.000000                    0.000000    
                                        CONSTANT HEAD:    0.000000                  -0.6035692E-03
                                                WELLS:   0.7299993E+08                0.000000    
                               1ST/0TH ORDER REACTION:    0.000000                    0.000000    
                                MASS STORAGE (SOLUTE):    4812762.                  -0.5559556E+08
                                MASS STORAGE (SORBED):    1721640.                  -0.2357796E+08
                            ---------------------------------------------------------------------------
                                              [TOTAL]:   0.7953433E+08 KG           -0.7917352E+08 KG  

                                                          NET (IN - OUT):    360808.0    
                                                   DISCREPANCY (PERCENT):   0.4546820    
     1 CALLS TO GCG PACKAGE FOR TRANSPORT TIME STEP  10 IN FLOW TIME STEP   1 STRESS PERIOD   2
     3 TOTAL ITERATIONS



 >>>>>>>>>>>>>>>>>>>>>>>>>>>>>>>>>>>>>>>>>>>>>>>>>>>>>>>FOR COMPONENT NO. 01<<<<<<<<<<<<<<<<<<<<<<<<<<<<<<<<<<<<<<<<<<<<<<<<<<<<<<<


                                            -------------------------------------------
                                                      TRANSPORT STEP NO.   10
                                            -------------------------------------------

 TOTAL ELAPSED TIME SINCE BEGINNING OF SIMULATION =   8030.894    D   
 .....................................................................

                     CUMMULATIVE MASS BUDGETS AT END OF TRANSPORT STEP   10, TIME STEP    1, STRESS PERIOD    2
                     ------------------------------------------------------------------------------------------

                                                             IN                           OUT
                                                      ----------------             ----------------
                               CONSTANT CONCENTRATION:    0.000000                    0.000000    
                                        CONSTANT HEAD:    0.000000                  -0.1305921E-02
                                                WELLS:   0.7299993E+08                0.000000    
                               1ST/0TH ORDER REACTION:    0.000000                    0.000000    
                                MASS STORAGE (SOLUTE):    5336515.                  -0.5609403E+08
                                MASS STORAGE (SORBED):    1917692.                  -0.2379644E+08
                            ---------------------------------------------------------------------------
                                              [TOTAL]:   0.8025414E+08 KG           -0.7989048E+08 KG  

                                                          NET (IN - OUT):    363656.0    
                                                   DISCREPANCY (PERCENT):   0.4541595    
     1 CALLS TO GCG PACKAGE FOR TRANSPORT TIME STEP  11 IN FLOW TIME STEP   1 STRESS PERIOD   2
     3 TOTAL ITERATIONS



 >>>>>>>>>>>>>>>>>>>>>>>>>>>>>>>>>>>>>>>>>>>>>>>>>>>>>>>FOR COMPONENT NO. 01<<<<<<<<<<<<<<<<<<<<<<<<<<<<<<<<<<<<<<<<<<<<<<<<<<<<<<<


                                            -------------------------------------------
                                                      TRANSPORT STEP NO.   11
                                            -------------------------------------------

 TOTAL ELAPSED TIME SINCE BEGINNING OF SIMULATION =   8103.983    D   
 .....................................................................

                     CUMMULATIVE MASS BUDGETS AT END OF TRANSPORT STEP   11, TIME STEP    1, STRESS PERIOD    2
                     ------------------------------------------------------------------------------------------

                                                             IN                           OUT
                                                      ----------------             ----------------
                               CONSTANT CONCENTRATION:    0.000000                    0.000000    
                                        CONSTANT HEAD:    0.000000                  -0.2724807E-02
                                                WELLS:   0.7299993E+08                0.000000    
                               1ST/0TH ORDER REACTION:    0.000000                    0.000000    
                                MASS STORAGE (SOLUTE):    5858783.                  -0.5659176E+08
                                MASS STORAGE (SORBED):    2114182.                  -0.2401473E+08
                            ---------------------------------------------------------------------------
                                              [TOTAL]:   0.8097290E+08 KG           -0.8060649E+08 KG  

                                                          NET (IN - OUT):    366408.0    
                                                   DISCREPANCY (PERCENT):   0.4535331    
     1 CALLS TO GCG PACKAGE FOR TRANSPORT TIME STEP  12 IN FLOW TIME STEP   1 STRESS PERIOD   2
     3 TOTAL ITERATIONS



 >>>>>>>>>>>>>>>>>>>>>>>>>>>>>>>>>>>>>>>>>>>>>>>>>>>>>>>FOR COMPONENT NO. 01<<<<<<<<<<<<<<<<<<<<<<<<<<<<<<<<<<<<<<<<<<<<<<<<<<<<<<<


                                            -------------------------------------------
                                                      TRANSPORT STEP NO.   12
                                            -------------------------------------------

 TOTAL ELAPSED TIME SINCE BEGINNING OF SIMULATION =   8177.072    D   
 .....................................................................

                     CUMMULATIVE MASS BUDGETS AT END OF TRANSPORT STEP   12, TIME STEP    1, STRESS PERIOD    2
                     ------------------------------------------------------------------------------------------

                                                             IN                           OUT
                                                      ----------------             ----------------
                               CONSTANT CONCENTRATION:    0.000000                    0.000000    
                                        CONSTANT HEAD:    0.000000                  -0.5487307E-02
                                                WELLS:   0.7299993E+08                0.000000    
                               1ST/0TH ORDER REACTION:    0.000000                    0.000000    
                                MASS STORAGE (SOLUTE):    6379526.                  -0.5708863E+08
                                MASS STORAGE (SORBED):    2311012.                  -0.2423277E+08
                            ---------------------------------------------------------------------------
                                              [TOTAL]:   0.8169046E+08 KG           -0.8132140E+08 KG  

                                                          NET (IN - OUT):    369064.0    
                                                   DISCREPANCY (PERCENT):   0.4528063    
     1 CALLS TO GCG PACKAGE FOR TRANSPORT TIME STEP  13 IN FLOW TIME STEP   1 STRESS PERIOD   2
     3 TOTAL ITERATIONS



 >>>>>>>>>>>>>>>>>>>>>>>>>>>>>>>>>>>>>>>>>>>>>>>>>>>>>>>FOR COMPONENT NO. 01<<<<<<<<<<<<<<<<<<<<<<<<<<<<<<<<<<<<<<<<<<<<<<<<<<<<<<<


                                            -------------------------------------------
                                                      TRANSPORT STEP NO.   13
                                            -------------------------------------------

 TOTAL ELAPSED TIME SINCE BEGINNING OF SIMULATION =   8250.161    D   
 .....................................................................

                     CUMMULATIVE MASS BUDGETS AT END OF TRANSPORT STEP   13, TIME STEP    1, STRESS PERIOD    2
                     ------------------------------------------------------------------------------------------

                                                             IN                           OUT
                                                      ----------------             ----------------
                               CONSTANT CONCENTRATION:    0.000000                    0.000000    
                                        CONSTANT HEAD:    0.000000                  -0.1068258E-01
                                                WELLS:   0.7299993E+08                0.000000    
                               1ST/0TH ORDER REACTION:    0.000000                    0.000000    
                                MASS STORAGE (SOLUTE):    6898881.                  -0.5758473E+08
                                MASS STORAGE (SORBED):    2508160.                  -0.2445059E+08
                            ---------------------------------------------------------------------------
                                              [TOTAL]:   0.8240697E+08 KG           -0.8203532E+08 KG  

                                                          NET (IN - OUT):    371648.0    
                                                   DISCREPANCY (PERCENT):   0.4520102    
     1 CALLS TO GCG PACKAGE FOR TRANSPORT TIME STEP  14 IN FLOW TIME STEP   1 STRESS PERIOD   2
     3 TOTAL ITERATIONS



 >>>>>>>>>>>>>>>>>>>>>>>>>>>>>>>>>>>>>>>>>>>>>>>>>>>>>>>FOR COMPONENT NO. 01<<<<<<<<<<<<<<<<<<<<<<<<<<<<<<<<<<<<<<<<<<<<<<<<<<<<<<<


                                            -------------------------------------------
                                                      TRANSPORT STEP NO.   14
                                            -------------------------------------------

 TOTAL ELAPSED TIME SINCE BEGINNING OF SIMULATION =   8323.250    D   
 .....................................................................

                     CUMMULATIVE MASS BUDGETS AT END OF TRANSPORT STEP   14, TIME STEP    1, STRESS PERIOD    2
                     ------------------------------------------------------------------------------------------

                                                             IN                           OUT
                                                      ----------------             ----------------
                               CONSTANT CONCENTRATION:    0.000000                    0.000000    
                                        CONSTANT HEAD:    0.000000                  -0.2014438E-01
                                                WELLS:   0.7299993E+08                0.000000    
                               1ST/0TH ORDER REACTION:    0.000000                    0.000000    
                                MASS STORAGE (SOLUTE):    7416743.                  -0.5807990E+08
                                MASS STORAGE (SORBED):    2705526.                  -0.2466815E+08
                            ---------------------------------------------------------------------------
                                              [TOTAL]:   0.8312220E+08 KG           -0.8274804E+08 KG  

                                                          NET (IN - OUT):    374160.0    
                                                   DISCREPANCY (PERCENT):   0.4511478    
     1 CALLS TO GCG PACKAGE FOR TRANSPORT TIME STEP  15 IN FLOW TIME STEP   1 STRESS PERIOD   2
     3 TOTAL ITERATIONS



 >>>>>>>>>>>>>>>>>>>>>>>>>>>>>>>>>>>>>>>>>>>>>>>>>>>>>>>FOR COMPONENT NO. 01<<<<<<<<<<<<<<<<<<<<<<<<<<<<<<<<<<<<<<<<<<<<<<<<<<<<<<<


                                            -------------------------------------------
                                                      TRANSPORT STEP NO.   15
                                            -------------------------------------------

 TOTAL ELAPSED TIME SINCE BEGINNING OF SIMULATION =   8396.339    D   
 .....................................................................

                     CUMMULATIVE MASS BUDGETS AT END OF TRANSPORT STEP   15, TIME STEP    1, STRESS PERIOD    2
                     ------------------------------------------------------------------------------------------

                                                             IN                           OUT
                                                      ----------------             ----------------
                               CONSTANT CONCENTRATION:    0.000000                    0.000000    
                                        CONSTANT HEAD:    0.000000                  -0.3687248E-01
                                                WELLS:   0.7299993E+08                0.000000    
                               1ST/0TH ORDER REACTION:    0.000000                    0.000000    
                                MASS STORAGE (SOLUTE):    7933278.                  -0.5857426E+08
                                MASS STORAGE (SORBED):    2903119.                  -0.2488547E+08
                            ---------------------------------------------------------------------------
                                              [TOTAL]:   0.8383633E+08 KG           -0.8345973E+08 KG  

                                                          NET (IN - OUT):    376600.0    
                                                   DISCREPANCY (PERCENT):   0.4502198    
     1 CALLS TO GCG PACKAGE FOR TRANSPORT TIME STEP  16 IN FLOW TIME STEP   1 STRESS PERIOD   2
     3 TOTAL ITERATIONS



 >>>>>>>>>>>>>>>>>>>>>>>>>>>>>>>>>>>>>>>>>>>>>>>>>>>>>>>FOR COMPONENT NO. 01<<<<<<<<<<<<<<<<<<<<<<<<<<<<<<<<<<<<<<<<<<<<<<<<<<<<<<<


                                            -------------------------------------------
                                                      TRANSPORT STEP NO.   16
                                            -------------------------------------------

 TOTAL ELAPSED TIME SINCE BEGINNING OF SIMULATION =   8469.428    D   
 .....................................................................

                     CUMMULATIVE MASS BUDGETS AT END OF TRANSPORT STEP   16, TIME STEP    1, STRESS PERIOD    2
                     ------------------------------------------------------------------------------------------

                                                             IN                           OUT
                                                      ----------------             ----------------
                               CONSTANT CONCENTRATION:    0.000000                    0.000000    
                                        CONSTANT HEAD:    0.000000                  -0.6564671E-01
                                                WELLS:   0.7299993E+08                0.000000    
                               1ST/0TH ORDER REACTION:    0.000000                    0.000000    
                                MASS STORAGE (SOLUTE):    8448454.                  -0.5906774E+08
                                MASS STORAGE (SORBED):    3100878.                  -0.2510254E+08
                            ---------------------------------------------------------------------------
                                              [TOTAL]:   0.8454926E+08 KG           -0.8417028E+08 KG  

                                                          NET (IN - OUT):    378984.0    
                                                   DISCREPANCY (PERCENT):   0.4492473    
     1 CALLS TO GCG PACKAGE FOR TRANSPORT TIME STEP  17 IN FLOW TIME STEP   1 STRESS PERIOD   2
     3 TOTAL ITERATIONS



 >>>>>>>>>>>>>>>>>>>>>>>>>>>>>>>>>>>>>>>>>>>>>>>>>>>>>>>FOR COMPONENT NO. 01<<<<<<<<<<<<<<<<<<<<<<<<<<<<<<<<<<<<<<<<<<<<<<<<<<<<<<<


                                            -------------------------------------------
                                                      TRANSPORT STEP NO.   17
                                            -------------------------------------------

 TOTAL ELAPSED TIME SINCE BEGINNING OF SIMULATION =   8542.517    D   
 .....................................................................

                     CUMMULATIVE MASS BUDGETS AT END OF TRANSPORT STEP   17, TIME STEP    1, STRESS PERIOD    2
                     ------------------------------------------------------------------------------------------

                                                             IN                           OUT
                                                      ----------------             ----------------
                               CONSTANT CONCENTRATION:    0.000000                    0.000000    
                                        CONSTANT HEAD:    0.000000                  -0.1138997    
                                                WELLS:   0.7299993E+08                0.000000    
                               1ST/0TH ORDER REACTION:    0.000000                    0.000000    
                                MASS STORAGE (SOLUTE):    8962154.                  -0.5956019E+08
                                MASS STORAGE (SORBED):    3298722.                  -0.2531930E+08
                            ---------------------------------------------------------------------------
                                              [TOTAL]:   0.8526080E+08 KG           -0.8487950E+08 KG  

                                                          NET (IN - OUT):    381304.0    
                                                   DISCREPANCY (PERCENT):   0.4482231    
     1 CALLS TO GCG PACKAGE FOR TRANSPORT TIME STEP  18 IN FLOW TIME STEP   1 STRESS PERIOD   2
     3 TOTAL ITERATIONS



 >>>>>>>>>>>>>>>>>>>>>>>>>>>>>>>>>>>>>>>>>>>>>>>>>>>>>>>FOR COMPONENT NO. 01<<<<<<<<<<<<<<<<<<<<<<<<<<<<<<<<<<<<<<<<<<<<<<<<<<<<<<<


                                            -------------------------------------------
                                                      TRANSPORT STEP NO.   18
                                            -------------------------------------------

 TOTAL ELAPSED TIME SINCE BEGINNING OF SIMULATION =   8615.605    D   
 .....................................................................

                     CUMMULATIVE MASS BUDGETS AT END OF TRANSPORT STEP   18, TIME STEP    1, STRESS PERIOD    2
                     ------------------------------------------------------------------------------------------

                                                             IN                           OUT
                                                      ----------------             ----------------
                               CONSTANT CONCENTRATION:    0.000000                    0.000000    
                                        CONSTANT HEAD:    0.000000                  -0.1929320    
                                                WELLS:   0.7299993E+08                0.000000    
                               1ST/0TH ORDER REACTION:    0.000000                    0.000000    
                                MASS STORAGE (SOLUTE):    9474545.                  -0.6005176E+08
                                MASS STORAGE (SORBED):    3496676.                  -0.2553580E+08
                            ---------------------------------------------------------------------------
                                              [TOTAL]:   0.8597114E+08 KG           -0.8558756E+08 KG  

                                                          NET (IN - OUT):    383584.0    
                                                   DISCREPANCY (PERCENT):   0.4471752    
     1 CALLS TO GCG PACKAGE FOR TRANSPORT TIME STEP  19 IN FLOW TIME STEP   1 STRESS PERIOD   2
     3 TOTAL ITERATIONS



 >>>>>>>>>>>>>>>>>>>>>>>>>>>>>>>>>>>>>>>>>>>>>>>>>>>>>>>FOR COMPONENT NO. 01<<<<<<<<<<<<<<<<<<<<<<<<<<<<<<<<<<<<<<<<<<<<<<<<<<<<<<<


                                            -------------------------------------------
                                                      TRANSPORT STEP NO.   19
                                            -------------------------------------------

 TOTAL ELAPSED TIME SINCE BEGINNING OF SIMULATION =   8688.694    D   
 .....................................................................

                     CUMMULATIVE MASS BUDGETS AT END OF TRANSPORT STEP   19, TIME STEP    1, STRESS PERIOD    2
                     ------------------------------------------------------------------------------------------

                                                             IN                           OUT
                                                      ----------------             ----------------
                               CONSTANT CONCENTRATION:    0.000000                    0.000000    
                                        CONSTANT HEAD:    0.000000                  -0.3195695    
                                                WELLS:   0.7299993E+08                0.000000    
                               1ST/0TH ORDER REACTION:    0.000000                    0.000000    
                                MASS STORAGE (SOLUTE):    9985488.                  -0.6054227E+08
                                MASS STORAGE (SORBED):    3694653.                  -0.2575198E+08
                            ---------------------------------------------------------------------------
                                              [TOTAL]:   0.8668007E+08 KG           -0.8629425E+08 KG  

                                                          NET (IN - OUT):    385824.0    
                                                   DISCREPANCY (PERCENT):   0.4461055    
     1 CALLS TO GCG PACKAGE FOR TRANSPORT TIME STEP  20 IN FLOW TIME STEP   1 STRESS PERIOD   2
     3 TOTAL ITERATIONS



 >>>>>>>>>>>>>>>>>>>>>>>>>>>>>>>>>>>>>>>>>>>>>>>>>>>>>>>FOR COMPONENT NO. 01<<<<<<<<<<<<<<<<<<<<<<<<<<<<<<<<<<<<<<<<<<<<<<<<<<<<<<<


                                            -------------------------------------------
                                                      TRANSPORT STEP NO.   20
                                            -------------------------------------------

 TOTAL ELAPSED TIME SINCE BEGINNING OF SIMULATION =   8761.783    D   
 .....................................................................

                     CUMMULATIVE MASS BUDGETS AT END OF TRANSPORT STEP   20, TIME STEP    1, STRESS PERIOD    2
                     ------------------------------------------------------------------------------------------

                                                             IN                           OUT
                                                      ----------------             ----------------
                               CONSTANT CONCENTRATION:    0.000000                    0.000000    
                                        CONSTANT HEAD:    0.000000                  -0.5183826    
                                                WELLS:   0.7299993E+08                0.000000    
                               1ST/0TH ORDER REACTION:    0.000000                    0.000000    
                                MASS STORAGE (SOLUTE):   0.1049512E+08              -0.6103185E+08
                                MASS STORAGE (SORBED):    3892680.                  -0.2596787E+08
                            ---------------------------------------------------------------------------
                                              [TOTAL]:   0.8738774E+08 KG           -0.8699972E+08 KG  

                                                          NET (IN - OUT):    388016.0    
                                                   DISCREPANCY (PERCENT):   0.4450045    
     1 CALLS TO GCG PACKAGE FOR TRANSPORT TIME STEP  21 IN FLOW TIME STEP   1 STRESS PERIOD   2
     3 TOTAL ITERATIONS



 >>>>>>>>>>>>>>>>>>>>>>>>>>>>>>>>>>>>>>>>>>>>>>>>>>>>>>>FOR COMPONENT NO. 01<<<<<<<<<<<<<<<<<<<<<<<<<<<<<<<<<<<<<<<<<<<<<<<<<<<<<<<


                                            -------------------------------------------
                                                      TRANSPORT STEP NO.   21
                                            -------------------------------------------

 TOTAL ELAPSED TIME SINCE BEGINNING OF SIMULATION =   8834.872    D   
 .....................................................................

                     CUMMULATIVE MASS BUDGETS AT END OF TRANSPORT STEP   21, TIME STEP    1, STRESS PERIOD    2
                     ------------------------------------------------------------------------------------------

                                                             IN                           OUT
                                                      ----------------             ----------------
                               CONSTANT CONCENTRATION:    0.000000                    0.000000    
                                        CONSTANT HEAD:    0.000000                  -0.8246053    
                                                WELLS:   0.7299993E+08                0.000000    
                               1ST/0TH ORDER REACTION:    0.000000                    0.000000    
                                MASS STORAGE (SOLUTE):   0.1100344E+08              -0.6152046E+08
                                MASS STORAGE (SORBED):    4090720.                  -0.2618347E+08
                            ---------------------------------------------------------------------------
                                              [TOTAL]:   0.8809408E+08 KG           -0.8770392E+08 KG  

                                                          NET (IN - OUT):    390160.0    
                                                   DISCREPANCY (PERCENT):   0.4438731    
     1 CALLS TO GCG PACKAGE FOR TRANSPORT TIME STEP  22 IN FLOW TIME STEP   1 STRESS PERIOD   2
     3 TOTAL ITERATIONS



 >>>>>>>>>>>>>>>>>>>>>>>>>>>>>>>>>>>>>>>>>>>>>>>>>>>>>>>FOR COMPONENT NO. 01<<<<<<<<<<<<<<<<<<<<<<<<<<<<<<<<<<<<<<<<<<<<<<<<<<<<<<<


                                            -------------------------------------------
                                                      TRANSPORT STEP NO.   22
                                            -------------------------------------------

 TOTAL ELAPSED TIME SINCE BEGINNING OF SIMULATION =   8907.961    D   
 .....................................................................

                     CUMMULATIVE MASS BUDGETS AT END OF TRANSPORT STEP   22, TIME STEP    1, STRESS PERIOD    2
                     ------------------------------------------------------------------------------------------

                                                             IN                           OUT
                                                      ----------------             ----------------
                               CONSTANT CONCENTRATION:    0.000000                    0.000000    
                                        CONSTANT HEAD:    0.000000                   -1.287916    
                                                WELLS:   0.7299993E+08                0.000000    
                               1ST/0TH ORDER REACTION:    0.000000                    0.000000    
                                MASS STORAGE (SOLUTE):   0.1151034E+08              -0.6200799E+08
                                MASS STORAGE (SORBED):    4288717.                  -0.2639872E+08
                            ---------------------------------------------------------------------------
                                              [TOTAL]:   0.8879898E+08 KG           -0.8840671E+08 KG  

                                                          NET (IN - OUT):    392272.0    
                                                   DISCREPANCY (PERCENT):   0.4427307    
     1 CALLS TO GCG PACKAGE FOR TRANSPORT TIME STEP  23 IN FLOW TIME STEP   1 STRESS PERIOD   2
     3 TOTAL ITERATIONS



 >>>>>>>>>>>>>>>>>>>>>>>>>>>>>>>>>>>>>>>>>>>>>>>>>>>>>>>FOR COMPONENT NO. 01<<<<<<<<<<<<<<<<<<<<<<<<<<<<<<<<<<<<<<<<<<<<<<<<<<<<<<<


                                            -------------------------------------------
                                                      TRANSPORT STEP NO.   23
                                            -------------------------------------------

 TOTAL ELAPSED TIME SINCE BEGINNING OF SIMULATION =   8981.050    D   
 .....................................................................

                     CUMMULATIVE MASS BUDGETS AT END OF TRANSPORT STEP   23, TIME STEP    1, STRESS PERIOD    2
                     ------------------------------------------------------------------------------------------

                                                             IN                           OUT
                                                      ----------------             ----------------
                               CONSTANT CONCENTRATION:    0.000000                    0.000000    
                                        CONSTANT HEAD:    0.000000                   -1.977256    
                                                WELLS:   0.7299993E+08                0.000000    
                               1ST/0TH ORDER REACTION:    0.000000                    0.000000    
                                MASS STORAGE (SOLUTE):   0.1201587E+08              -0.6249446E+08
                                MASS STORAGE (SORBED):    4486664.                  -0.2661365E+08
                            ---------------------------------------------------------------------------
                                              [TOTAL]:   0.8950246E+08 KG           -0.8910811E+08 KG  

                                                          NET (IN - OUT):    394344.0    
                                                   DISCREPANCY (PERCENT):   0.4415685    
     1 CALLS TO GCG PACKAGE FOR TRANSPORT TIME STEP  24 IN FLOW TIME STEP   1 STRESS PERIOD   2
     3 TOTAL ITERATIONS



 >>>>>>>>>>>>>>>>>>>>>>>>>>>>>>>>>>>>>>>>>>>>>>>>>>>>>>>FOR COMPONENT NO. 01<<<<<<<<<<<<<<<<<<<<<<<<<<<<<<<<<<<<<<<<<<<<<<<<<<<<<<<


                                            -------------------------------------------
                                                      TRANSPORT STEP NO.   24
                                            -------------------------------------------

 TOTAL ELAPSED TIME SINCE BEGINNING OF SIMULATION =   9054.139    D   
 .....................................................................

                     CUMMULATIVE MASS BUDGETS AT END OF TRANSPORT STEP   24, TIME STEP    1, STRESS PERIOD    2
                     ------------------------------------------------------------------------------------------

                                                             IN                           OUT
                                                      ----------------             ----------------
                               CONSTANT CONCENTRATION:    0.000000                    0.000000    
                                        CONSTANT HEAD:    0.000000                   -2.986887    
                                                WELLS:   0.7299993E+08                0.000000    
                               1ST/0TH ORDER REACTION:    0.000000                    0.000000    
                                MASS STORAGE (SOLUTE):   0.1252003E+08              -0.6297986E+08
                                MASS STORAGE (SORBED):    4684542.                  -0.2682824E+08
                            ---------------------------------------------------------------------------
                                              [TOTAL]:   0.9020450E+08 KG           -0.8980811E+08 KG  

                                                          NET (IN - OUT):    396392.0    
                                                   DISCREPANCY (PERCENT):   0.4404047    
     1 CALLS TO GCG PACKAGE FOR TRANSPORT TIME STEP  25 IN FLOW TIME STEP   1 STRESS PERIOD   2
     3 TOTAL ITERATIONS



 >>>>>>>>>>>>>>>>>>>>>>>>>>>>>>>>>>>>>>>>>>>>>>>>>>>>>>>FOR COMPONENT NO. 01<<<<<<<<<<<<<<<<<<<<<<<<<<<<<<<<<<<<<<<<<<<<<<<<<<<<<<<


                                            -------------------------------------------
                                                      TRANSPORT STEP NO.   25
                                            -------------------------------------------

 TOTAL ELAPSED TIME SINCE BEGINNING OF SIMULATION =   9127.228    D   
 .....................................................................

                     CUMMULATIVE MASS BUDGETS AT END OF TRANSPORT STEP   25, TIME STEP    1, STRESS PERIOD    2
                     ------------------------------------------------------------------------------------------

                                                             IN                           OUT
                                                      ----------------             ----------------
                               CONSTANT CONCENTRATION:    0.000000                    0.000000    
                                        CONSTANT HEAD:    0.000000                   -4.443904    
                                                WELLS:   0.7299993E+08                0.000000    
                               1ST/0TH ORDER REACTION:    0.000000                    0.000000    
                                MASS STORAGE (SOLUTE):   0.1302287E+08              -0.6346423E+08
                                MASS STORAGE (SORBED):    4882348.                  -0.2704251E+08
                            ---------------------------------------------------------------------------
                                              [TOTAL]:   0.9090515E+08 KG           -0.9050674E+08 KG  

                                                          NET (IN - OUT):    398408.0    
                                                   DISCREPANCY (PERCENT):   0.4392303    
     1 CALLS TO GCG PACKAGE FOR TRANSPORT TIME STEP  26 IN FLOW TIME STEP   1 STRESS PERIOD   2
     3 TOTAL ITERATIONS



 >>>>>>>>>>>>>>>>>>>>>>>>>>>>>>>>>>>>>>>>>>>>>>>>>>>>>>>FOR COMPONENT NO. 01<<<<<<<<<<<<<<<<<<<<<<<<<<<<<<<<<<<<<<<<<<<<<<<<<<<<<<<


                                            -------------------------------------------
                                                      TRANSPORT STEP NO.   26
                                            -------------------------------------------

 TOTAL ELAPSED TIME SINCE BEGINNING OF SIMULATION =   9200.316    D   
 .....................................................................

                     CUMMULATIVE MASS BUDGETS AT END OF TRANSPORT STEP   26, TIME STEP    1, STRESS PERIOD    2
                     ------------------------------------------------------------------------------------------

                                                             IN                           OUT
                                                      ----------------             ----------------
                               CONSTANT CONCENTRATION:    0.000000                    0.000000    
                                        CONSTANT HEAD:    0.000000                   -6.517430    
                                                WELLS:   0.7299993E+08                0.000000    
                               1ST/0TH ORDER REACTION:    0.000000                    0.000000    
                                MASS STORAGE (SOLUTE):   0.1352443E+08              -0.6394760E+08
                                MASS STORAGE (SORBED):    5080083.                  -0.2725646E+08
                            ---------------------------------------------------------------------------
                                              [TOTAL]:   0.9160444E+08 KG           -0.9120406E+08 KG  

                                                          NET (IN - OUT):    400376.0    
                                                   DISCREPANCY (PERCENT):   0.4380277    
     1 CALLS TO GCG PACKAGE FOR TRANSPORT TIME STEP  27 IN FLOW TIME STEP   1 STRESS PERIOD   2
     3 TOTAL ITERATIONS



 >>>>>>>>>>>>>>>>>>>>>>>>>>>>>>>>>>>>>>>>>>>>>>>>>>>>>>>FOR COMPONENT NO. 01<<<<<<<<<<<<<<<<<<<<<<<<<<<<<<<<<<<<<<<<<<<<<<<<<<<<<<<


                                            -------------------------------------------
                                                      TRANSPORT STEP NO.   27
                                            -------------------------------------------

 TOTAL ELAPSED TIME SINCE BEGINNING OF SIMULATION =   9273.405    D   
 .....................................................................

                     CUMMULATIVE MASS BUDGETS AT END OF TRANSPORT STEP   27, TIME STEP    1, STRESS PERIOD    2
                     ------------------------------------------------------------------------------------------

                                                             IN                           OUT
                                                      ----------------             ----------------
                               CONSTANT CONCENTRATION:    0.000000                    0.000000    
                                        CONSTANT HEAD:    0.000000                   -9.429753    
                                                WELLS:   0.7299993E+08                0.000000    
                               1ST/0TH ORDER REACTION:    0.000000                    0.000000    
                                MASS STORAGE (SOLUTE):   0.1402460E+08              -0.6442982E+08
                                MASS STORAGE (SORBED):    5277685.                  -0.2747004E+08
                            ---------------------------------------------------------------------------
                                              [TOTAL]:   0.9230222E+08 KG           -0.9189987E+08 KG  

                                                          NET (IN - OUT):    402344.0    
                                                   DISCREPANCY (PERCENT):   0.4368507    
     1 CALLS TO GCG PACKAGE FOR TRANSPORT TIME STEP  28 IN FLOW TIME STEP   1 STRESS PERIOD   2
     3 TOTAL ITERATIONS



 >>>>>>>>>>>>>>>>>>>>>>>>>>>>>>>>>>>>>>>>>>>>>>>>>>>>>>>FOR COMPONENT NO. 01<<<<<<<<<<<<<<<<<<<<<<<<<<<<<<<<<<<<<<<<<<<<<<<<<<<<<<<


                                            -------------------------------------------
                                                      TRANSPORT STEP NO.   28
                                            -------------------------------------------

 TOTAL ELAPSED TIME SINCE BEGINNING OF SIMULATION =   9346.494    D   
 .....................................................................

                     CUMMULATIVE MASS BUDGETS AT END OF TRANSPORT STEP   28, TIME STEP    1, STRESS PERIOD    2
                     ------------------------------------------------------------------------------------------

                                                             IN                           OUT
                                                      ----------------             ----------------
                               CONSTANT CONCENTRATION:    0.000000                    0.000000    
                                        CONSTANT HEAD:    0.000000                   -13.46964    
                                                WELLS:   0.7299993E+08                0.000000    
                               1ST/0TH ORDER REACTION:    0.000000                    0.000000    
                                MASS STORAGE (SOLUTE):   0.1452344E+08              -0.6491098E+08
                                MASS STORAGE (SORBED):    5475167.                  -0.2768328E+08
                            ---------------------------------------------------------------------------
                                              [TOTAL]:   0.9299854E+08 KG           -0.9259427E+08 KG  

                                                          NET (IN - OUT):    404272.0    
                                                   DISCREPANCY (PERCENT):   0.4356548    
     1 CALLS TO GCG PACKAGE FOR TRANSPORT TIME STEP  29 IN FLOW TIME STEP   1 STRESS PERIOD   2
     3 TOTAL ITERATIONS



 >>>>>>>>>>>>>>>>>>>>>>>>>>>>>>>>>>>>>>>>>>>>>>>>>>>>>>>FOR COMPONENT NO. 01<<<<<<<<<<<<<<<<<<<<<<<<<<<<<<<<<<<<<<<<<<<<<<<<<<<<<<<


                                            -------------------------------------------
                                                      TRANSPORT STEP NO.   29
                                            -------------------------------------------

 TOTAL ELAPSED TIME SINCE BEGINNING OF SIMULATION =   9419.583    D   
 .....................................................................

                     CUMMULATIVE MASS BUDGETS AT END OF TRANSPORT STEP   29, TIME STEP    1, STRESS PERIOD    2
                     ------------------------------------------------------------------------------------------

                                                             IN                           OUT
                                                      ----------------             ----------------
                               CONSTANT CONCENTRATION:    0.000000                    0.000000    
                                        CONSTANT HEAD:    0.000000                   -19.00808    
                                                WELLS:   0.7299993E+08                0.000000    
                               1ST/0TH ORDER REACTION:    0.000000                    0.000000    
                                MASS STORAGE (SOLUTE):   0.1502098E+08              -0.6539107E+08
                                MASS STORAGE (SORBED):    5672519.                  -0.2789618E+08
                            ---------------------------------------------------------------------------
                                              [TOTAL]:   0.9369343E+08 KG           -0.9328726E+08 KG  

                                                          NET (IN - OUT):    406168.0    
                                                   DISCREPANCY (PERCENT):   0.4344491    
     1 CALLS TO GCG PACKAGE FOR TRANSPORT TIME STEP  30 IN FLOW TIME STEP   1 STRESS PERIOD   2
     3 TOTAL ITERATIONS



 >>>>>>>>>>>>>>>>>>>>>>>>>>>>>>>>>>>>>>>>>>>>>>>>>>>>>>>FOR COMPONENT NO. 01<<<<<<<<<<<<<<<<<<<<<<<<<<<<<<<<<<<<<<<<<<<<<<<<<<<<<<<


                                            -------------------------------------------
                                                      TRANSPORT STEP NO.   30
                                            -------------------------------------------

 TOTAL ELAPSED TIME SINCE BEGINNING OF SIMULATION =   9492.672    D   
 .....................................................................

                     CUMMULATIVE MASS BUDGETS AT END OF TRANSPORT STEP   30, TIME STEP    1, STRESS PERIOD    2
                     ------------------------------------------------------------------------------------------

                                                             IN                           OUT
                                                      ----------------             ----------------
                               CONSTANT CONCENTRATION:    0.000000                    0.000000    
                                        CONSTANT HEAD:    0.000000                   -26.51679    
                                                WELLS:   0.7299993E+08                0.000000    
                               1ST/0TH ORDER REACTION:    0.000000                    0.000000    
                                MASS STORAGE (SOLUTE):   0.1551714E+08              -0.6587000E+08
                                MASS STORAGE (SORBED):    5869702.                  -0.2810869E+08
                            ---------------------------------------------------------------------------
                                              [TOTAL]:   0.9438677E+08 KG           -0.9397873E+08 KG  

                                                          NET (IN - OUT):    408040.0    
                                                   DISCREPANCY (PERCENT):   0.4332428    
     1 CALLS TO GCG PACKAGE FOR TRANSPORT TIME STEP  31 IN FLOW TIME STEP   1 STRESS PERIOD   2
     3 TOTAL ITERATIONS



 >>>>>>>>>>>>>>>>>>>>>>>>>>>>>>>>>>>>>>>>>>>>>>>>>>>>>>>FOR COMPONENT NO. 01<<<<<<<<<<<<<<<<<<<<<<<<<<<<<<<<<<<<<<<<<<<<<<<<<<<<<<<


                                            -------------------------------------------
                                                      TRANSPORT STEP NO.   31
                                            -------------------------------------------

 TOTAL ELAPSED TIME SINCE BEGINNING OF SIMULATION =   9565.761    D   
 .....................................................................

                     CUMMULATIVE MASS BUDGETS AT END OF TRANSPORT STEP   31, TIME STEP    1, STRESS PERIOD    2
                     ------------------------------------------------------------------------------------------

                                                             IN                           OUT
                                                      ----------------             ----------------
                               CONSTANT CONCENTRATION:    0.000000                    0.000000    
                                        CONSTANT HEAD:    0.000000                   -36.58960    
                                                WELLS:   0.7299993E+08                0.000000    
                               1ST/0TH ORDER REACTION:    0.000000                    0.000000    
                                MASS STORAGE (SOLUTE):   0.1601192E+08              -0.6634778E+08
                                MASS STORAGE (SORBED):    6066704.                  -0.2832083E+08
                            ---------------------------------------------------------------------------
                                              [TOTAL]:   0.9507855E+08 KG           -0.9466866E+08 KG  

                                                          NET (IN - OUT):    409896.0    
                                                   DISCREPANCY (PERCENT):   0.4320443    
     1 CALLS TO GCG PACKAGE FOR TRANSPORT TIME STEP  32 IN FLOW TIME STEP   1 STRESS PERIOD   2
     3 TOTAL ITERATIONS



 >>>>>>>>>>>>>>>>>>>>>>>>>>>>>>>>>>>>>>>>>>>>>>>>>>>>>>>FOR COMPONENT NO. 01<<<<<<<<<<<<<<<<<<<<<<<<<<<<<<<<<<<<<<<<<<<<<<<<<<<<<<<


                                            -------------------------------------------
                                                      TRANSPORT STEP NO.   32
                                            -------------------------------------------

 TOTAL ELAPSED TIME SINCE BEGINNING OF SIMULATION =   9638.850    D   
 .....................................................................

                     CUMMULATIVE MASS BUDGETS AT END OF TRANSPORT STEP   32, TIME STEP    1, STRESS PERIOD    2
                     ------------------------------------------------------------------------------------------

                                                             IN                           OUT
                                                      ----------------             ----------------
                               CONSTANT CONCENTRATION:    0.000000                    0.000000    
                                        CONSTANT HEAD:    0.000000                   -49.96711    
                                                WELLS:   0.7299993E+08                0.000000    
                               1ST/0TH ORDER REACTION:    0.000000                    0.000000    
                                MASS STORAGE (SOLUTE):   0.1650541E+08              -0.6682448E+08
                                MASS STORAGE (SORBED):    6263545.                  -0.2853262E+08
                            ---------------------------------------------------------------------------
                                              [TOTAL]:   0.9576888E+08 KG           -0.9535715E+08 KG  

                                                          NET (IN - OUT):    411728.0    
                                                   DISCREPANCY (PERCENT):   0.4308445    
     1 CALLS TO GCG PACKAGE FOR TRANSPORT TIME STEP  33 IN FLOW TIME STEP   1 STRESS PERIOD   2
     3 TOTAL ITERATIONS



 >>>>>>>>>>>>>>>>>>>>>>>>>>>>>>>>>>>>>>>>>>>>>>>>>>>>>>>FOR COMPONENT NO. 01<<<<<<<<<<<<<<<<<<<<<<<<<<<<<<<<<<<<<<<<<<<<<<<<<<<<<<<


                                            -------------------------------------------
                                                      TRANSPORT STEP NO.   33
                                            -------------------------------------------

 TOTAL ELAPSED TIME SINCE BEGINNING OF SIMULATION =   9711.938    D   
 .....................................................................

                     CUMMULATIVE MASS BUDGETS AT END OF TRANSPORT STEP   33, TIME STEP    1, STRESS PERIOD    2
                     ------------------------------------------------------------------------------------------

                                                             IN                           OUT
                                                      ----------------             ----------------
                               CONSTANT CONCENTRATION:    0.000000                    0.000000    
                                        CONSTANT HEAD:    0.000000                   -67.56474    
                                                WELLS:   0.7299993E+08                0.000000    
                               1ST/0TH ORDER REACTION:    0.000000                    0.000000    
                                MASS STORAGE (SOLUTE):   0.1699754E+08              -0.6730002E+08
                                MASS STORAGE (SORBED):    6460190.                  -0.2874402E+08
                            ---------------------------------------------------------------------------
                                              [TOTAL]:   0.9645766E+08 KG           -0.9604411E+08 KG  

                                                          NET (IN - OUT):    413544.0    
                                                   DISCREPANCY (PERCENT):   0.4296522    
     1 CALLS TO GCG PACKAGE FOR TRANSPORT TIME STEP  34 IN FLOW TIME STEP   1 STRESS PERIOD   2
     3 TOTAL ITERATIONS



 >>>>>>>>>>>>>>>>>>>>>>>>>>>>>>>>>>>>>>>>>>>>>>>>>>>>>>>FOR COMPONENT NO. 01<<<<<<<<<<<<<<<<<<<<<<<<<<<<<<<<<<<<<<<<<<<<<<<<<<<<<<<


                                            -------------------------------------------
                                                      TRANSPORT STEP NO.   34
                                            -------------------------------------------

 TOTAL ELAPSED TIME SINCE BEGINNING OF SIMULATION =   9785.027    D   
 .....................................................................

                     CUMMULATIVE MASS BUDGETS AT END OF TRANSPORT STEP   34, TIME STEP    1, STRESS PERIOD    2
                     ------------------------------------------------------------------------------------------

                                                             IN                           OUT
                                                      ----------------             ----------------
                               CONSTANT CONCENTRATION:    0.000000                    0.000000    
                                        CONSTANT HEAD:    0.000000                   -90.50445    
                                                WELLS:   0.7299993E+08                0.000000    
                               1ST/0TH ORDER REACTION:    0.000000                    0.000000    
                                MASS STORAGE (SOLUTE):   0.1748832E+08              -0.6777442E+08
                                MASS STORAGE (SORBED):    6656630.                  -0.2895504E+08
                            ---------------------------------------------------------------------------
                                              [TOTAL]:   0.9714487E+08 KG           -0.9672955E+08 KG  

                                                          NET (IN - OUT):    415320.0    
                                                   DISCREPANCY (PERCENT):   0.4284423    
     1 CALLS TO GCG PACKAGE FOR TRANSPORT TIME STEP  35 IN FLOW TIME STEP   1 STRESS PERIOD   2
     3 TOTAL ITERATIONS



 >>>>>>>>>>>>>>>>>>>>>>>>>>>>>>>>>>>>>>>>>>>>>>>>>>>>>>>FOR COMPONENT NO. 01<<<<<<<<<<<<<<<<<<<<<<<<<<<<<<<<<<<<<<<<<<<<<<<<<<<<<<<


                                            -------------------------------------------
                                                      TRANSPORT STEP NO.   35
                                            -------------------------------------------

 TOTAL ELAPSED TIME SINCE BEGINNING OF SIMULATION =   9858.116    D   
 .....................................................................

                     CUMMULATIVE MASS BUDGETS AT END OF TRANSPORT STEP   35, TIME STEP    1, STRESS PERIOD    2
                     ------------------------------------------------------------------------------------------

                                                             IN                           OUT
                                                      ----------------             ----------------
                               CONSTANT CONCENTRATION:    0.000000                    0.000000    
                                        CONSTANT HEAD:    0.000000                   -120.1503    
                                                WELLS:   0.7299993E+08                0.000000    
                               1ST/0TH ORDER REACTION:    0.000000                    0.000000    
                                MASS STORAGE (SOLUTE):   0.1797777E+08              -0.6824766E+08
                                MASS STORAGE (SORBED):    6852866.                  -0.2916569E+08
                            ---------------------------------------------------------------------------
                                              [TOTAL]:   0.9783056E+08 KG           -0.9741347E+08 KG  

                                                          NET (IN - OUT):    417088.0    
                                                   DISCREPANCY (PERCENT):   0.4272479    
     1 CALLS TO GCG PACKAGE FOR TRANSPORT TIME STEP  36 IN FLOW TIME STEP   1 STRESS PERIOD   2
     3 TOTAL ITERATIONS



 >>>>>>>>>>>>>>>>>>>>>>>>>>>>>>>>>>>>>>>>>>>>>>>>>>>>>>>FOR COMPONENT NO. 01<<<<<<<<<<<<<<<<<<<<<<<<<<<<<<<<<<<<<<<<<<<<<<<<<<<<<<<


                                            -------------------------------------------
                                                      TRANSPORT STEP NO.   36
                                            -------------------------------------------

 TOTAL ELAPSED TIME SINCE BEGINNING OF SIMULATION =   9931.205    D   
 .....................................................................

                     CUMMULATIVE MASS BUDGETS AT END OF TRANSPORT STEP   36, TIME STEP    1, STRESS PERIOD    2
                     ------------------------------------------------------------------------------------------

                                                             IN                           OUT
                                                      ----------------             ----------------
                               CONSTANT CONCENTRATION:    0.000000                    0.000000    
                                        CONSTANT HEAD:    0.000000                   -158.1479    
                                                WELLS:   0.7299993E+08                0.000000    
                               1ST/0TH ORDER REACTION:    0.000000                    0.000000    
                                MASS STORAGE (SOLUTE):   0.1846595E+08              -0.6871982E+08
                                MASS STORAGE (SORBED):    7048909.                  -0.2937596E+08
                            ---------------------------------------------------------------------------
                                              [TOTAL]:   0.9851479E+08 KG           -0.9809595E+08 KG  

                                                          NET (IN - OUT):    418840.0    
                                                   DISCREPANCY (PERCENT):   0.4260601    
     1 CALLS TO GCG PACKAGE FOR TRANSPORT TIME STEP  37 IN FLOW TIME STEP   1 STRESS PERIOD   2
     3 TOTAL ITERATIONS



 >>>>>>>>>>>>>>>>>>>>>>>>>>>>>>>>>>>>>>>>>>>>>>>>>>>>>>>FOR COMPONENT NO. 01<<<<<<<<<<<<<<<<<<<<<<<<<<<<<<<<<<<<<<<<<<<<<<<<<<<<<<<


                                            -------------------------------------------
                                                      TRANSPORT STEP NO.   37
                                            -------------------------------------------

 TOTAL ELAPSED TIME SINCE BEGINNING OF SIMULATION =   10004.29    D   
 .....................................................................

                     CUMMULATIVE MASS BUDGETS AT END OF TRANSPORT STEP   37, TIME STEP    1, STRESS PERIOD    2
                     ------------------------------------------------------------------------------------------

                                                             IN                           OUT
                                                      ----------------             ----------------
                               CONSTANT CONCENTRATION:    0.000000                    0.000000    
                                        CONSTANT HEAD:    0.000000                   -206.4683    
                                                WELLS:   0.7299993E+08                0.000000    
                               1ST/0TH ORDER REACTION:    0.000000                    0.000000    
                                MASS STORAGE (SOLUTE):   0.1895278E+08              -0.6919081E+08
                                MASS STORAGE (SORBED):    7244718.                  -0.2958584E+08
                            ---------------------------------------------------------------------------
                                              [TOTAL]:   0.9919742E+08 KG           -0.9877686E+08 KG  

                                                          NET (IN - OUT):    420568.0    
                                                   DISCREPANCY (PERCENT):   0.4248714    
     1 CALLS TO GCG PACKAGE FOR TRANSPORT TIME STEP  38 IN FLOW TIME STEP   1 STRESS PERIOD   2
     3 TOTAL ITERATIONS



 >>>>>>>>>>>>>>>>>>>>>>>>>>>>>>>>>>>>>>>>>>>>>>>>>>>>>>>FOR COMPONENT NO. 01<<<<<<<<<<<<<<<<<<<<<<<<<<<<<<<<<<<<<<<<<<<<<<<<<<<<<<<


                                            -------------------------------------------
                                                      TRANSPORT STEP NO.   38
                                            -------------------------------------------

 TOTAL ELAPSED TIME SINCE BEGINNING OF SIMULATION =   10077.38    D   
 .....................................................................

                     CUMMULATIVE MASS BUDGETS AT END OF TRANSPORT STEP   38, TIME STEP    1, STRESS PERIOD    2
                     ------------------------------------------------------------------------------------------

                                                             IN                           OUT
                                                      ----------------             ----------------
                               CONSTANT CONCENTRATION:    0.000000                    0.000000    
                                        CONSTANT HEAD:    0.000000                   -267.4554    
                                                WELLS:   0.7299993E+08                0.000000    
                               1ST/0TH ORDER REACTION:    0.000000                    0.000000    
                                MASS STORAGE (SOLUTE):   0.1943821E+08              -0.6966057E+08
                                MASS STORAGE (SORBED):    7440271.                  -0.2979530E+08
                            ---------------------------------------------------------------------------
                                              [TOTAL]:   0.9987842E+08 KG           -0.9945614E+08 KG  

                                                          NET (IN - OUT):    422280.0    
                                                   DISCREPANCY (PERCENT):   0.4236897    
     1 CALLS TO GCG PACKAGE FOR TRANSPORT TIME STEP  39 IN FLOW TIME STEP   1 STRESS PERIOD   2
     3 TOTAL ITERATIONS



 >>>>>>>>>>>>>>>>>>>>>>>>>>>>>>>>>>>>>>>>>>>>>>>>>>>>>>>FOR COMPONENT NO. 01<<<<<<<<<<<<<<<<<<<<<<<<<<<<<<<<<<<<<<<<<<<<<<<<<<<<<<<


                                            -------------------------------------------
                                                      TRANSPORT STEP NO.   39
                                            -------------------------------------------

 TOTAL ELAPSED TIME SINCE BEGINNING OF SIMULATION =   10150.47    D   
 .....................................................................

                     CUMMULATIVE MASS BUDGETS AT END OF TRANSPORT STEP   39, TIME STEP    1, STRESS PERIOD    2
                     ------------------------------------------------------------------------------------------

                                                             IN                           OUT
                                                      ----------------             ----------------
                               CONSTANT CONCENTRATION:    0.000000                    0.000000    
                                        CONSTANT HEAD:    0.000000                   -343.8781    
                                                WELLS:   0.7299993E+08                0.000000    
                               1ST/0TH ORDER REACTION:    0.000000                    0.000000    
                                MASS STORAGE (SOLUTE):   0.1992232E+08              -0.7012915E+08
                                MASS STORAGE (SORBED):    7635584.                  -0.3000436E+08
                            ---------------------------------------------------------------------------
                                              [TOTAL]:   0.1005578E+09 KG           -0.1001339E+09 KG  

                                                          NET (IN - OUT):    423976.0    
                                                   DISCREPANCY (PERCENT):   0.4225148    
     1 CALLS TO GCG PACKAGE FOR TRANSPORT TIME STEP  40 IN FLOW TIME STEP   1 STRESS PERIOD   2
     3 TOTAL ITERATIONS



 >>>>>>>>>>>>>>>>>>>>>>>>>>>>>>>>>>>>>>>>>>>>>>>>>>>>>>>FOR COMPONENT NO. 01<<<<<<<<<<<<<<<<<<<<<<<<<<<<<<<<<<<<<<<<<<<<<<<<<<<<<<<


                                            -------------------------------------------
                                                      TRANSPORT STEP NO.   40
                                            -------------------------------------------

 TOTAL ELAPSED TIME SINCE BEGINNING OF SIMULATION =   10223.56    D   
 .....................................................................

                     CUMMULATIVE MASS BUDGETS AT END OF TRANSPORT STEP   40, TIME STEP    1, STRESS PERIOD    2
                     ------------------------------------------------------------------------------------------

                                                             IN                           OUT
                                                      ----------------             ----------------
                               CONSTANT CONCENTRATION:    0.000000                    0.000000    
                                        CONSTANT HEAD:    0.000000                   -438.9867    
                                                WELLS:   0.7299993E+08                0.000000    
                               1ST/0TH ORDER REACTION:    0.000000                    0.000000    
                                MASS STORAGE (SOLUTE):   0.2040519E+08              -0.7059666E+08
                                MASS STORAGE (SORBED):    7830684.                  -0.3021306E+08
                            ---------------------------------------------------------------------------
                                              [TOTAL]:   0.1012358E+09 KG           -0.1008102E+09 KG  

                                                          NET (IN - OUT):    425656.0    
                                                   DISCREPANCY (PERCENT):   0.4213457    
     1 CALLS TO GCG PACKAGE FOR TRANSPORT TIME STEP  41 IN FLOW TIME STEP   1 STRESS PERIOD   2
     3 TOTAL ITERATIONS



 >>>>>>>>>>>>>>>>>>>>>>>>>>>>>>>>>>>>>>>>>>>>>>>>>>>>>>>FOR COMPONENT NO. 01<<<<<<<<<<<<<<<<<<<<<<<<<<<<<<<<<<<<<<<<<<<<<<<<<<<<<<<


                                            -------------------------------------------
                                                      TRANSPORT STEP NO.   41
                                            -------------------------------------------

 TOTAL ELAPSED TIME SINCE BEGINNING OF SIMULATION =   10296.65    D   
 .....................................................................

                     CUMMULATIVE MASS BUDGETS AT END OF TRANSPORT STEP   41, TIME STEP    1, STRESS PERIOD    2
                     ------------------------------------------------------------------------------------------

                                                             IN                           OUT
                                                      ----------------             ----------------
                               CONSTANT CONCENTRATION:    0.000000                    0.000000    
                                        CONSTANT HEAD:    0.000000                   -556.5731    
                                                WELLS:   0.7299993E+08                0.000000    
                               1ST/0TH ORDER REACTION:    0.000000                    0.000000    
                                MASS STORAGE (SOLUTE):   0.2088671E+08              -0.7106296E+08
                                MASS STORAGE (SORBED):    8025522.                  -0.3042134E+08
                            ---------------------------------------------------------------------------
                                              [TOTAL]:   0.1019122E+09 KG           -0.1014849E+09 KG  

                                                          NET (IN - OUT):    427304.0    
                                                   DISCREPANCY (PERCENT):   0.4201674    
     1 CALLS TO GCG PACKAGE FOR TRANSPORT TIME STEP  42 IN FLOW TIME STEP   1 STRESS PERIOD   2
     3 TOTAL ITERATIONS



 >>>>>>>>>>>>>>>>>>>>>>>>>>>>>>>>>>>>>>>>>>>>>>>>>>>>>>>FOR COMPONENT NO. 01<<<<<<<<<<<<<<<<<<<<<<<<<<<<<<<<<<<<<<<<<<<<<<<<<<<<<<<


                                            -------------------------------------------
                                                      TRANSPORT STEP NO.   42
                                            -------------------------------------------

 TOTAL ELAPSED TIME SINCE BEGINNING OF SIMULATION =   10369.74    D   
 .....................................................................

                     CUMMULATIVE MASS BUDGETS AT END OF TRANSPORT STEP   42, TIME STEP    1, STRESS PERIOD    2
                     ------------------------------------------------------------------------------------------

                                                             IN                           OUT
                                                      ----------------             ----------------
                               CONSTANT CONCENTRATION:    0.000000                    0.000000    
                                        CONSTANT HEAD:    0.000000                   -701.0349    
                                                WELLS:   0.7299993E+08                0.000000    
                               1ST/0TH ORDER REACTION:    0.000000                    0.000000    
                                MASS STORAGE (SOLUTE):   0.2136693E+08              -0.7152810E+08
                                MASS STORAGE (SORBED):    8220105.                  -0.3062921E+08
                            ---------------------------------------------------------------------------
                                              [TOTAL]:   0.1025870E+09 KG           -0.1021580E+09 KG  

                                                          NET (IN - OUT):    428952.0    
                                                   DISCREPANCY (PERCENT):   0.4190111    
     1 CALLS TO GCG PACKAGE FOR TRANSPORT TIME STEP  43 IN FLOW TIME STEP   1 STRESS PERIOD   2
     3 TOTAL ITERATIONS



 >>>>>>>>>>>>>>>>>>>>>>>>>>>>>>>>>>>>>>>>>>>>>>>>>>>>>>>FOR COMPONENT NO. 01<<<<<<<<<<<<<<<<<<<<<<<<<<<<<<<<<<<<<<<<<<<<<<<<<<<<<<<


                                            -------------------------------------------
                                                      TRANSPORT STEP NO.   43
                                            -------------------------------------------

 TOTAL ELAPSED TIME SINCE BEGINNING OF SIMULATION =   10442.83    D   
 .....................................................................

                     CUMMULATIVE MASS BUDGETS AT END OF TRANSPORT STEP   43, TIME STEP    1, STRESS PERIOD    2
                     ------------------------------------------------------------------------------------------

                                                             IN                           OUT
                                                      ----------------             ----------------
                               CONSTANT CONCENTRATION:    0.000000                    0.000000    
                                        CONSTANT HEAD:    0.000000                   -877.4441    
                                                WELLS:   0.7299993E+08                0.000000    
                               1ST/0TH ORDER REACTION:    0.000000                    0.000000    
                                MASS STORAGE (SOLUTE):   0.2184579E+08              -0.7199202E+08
                                MASS STORAGE (SORBED):    8414413.                  -0.3083666E+08
                            ---------------------------------------------------------------------------
                                              [TOTAL]:   0.1032601E+09 KG           -0.1028296E+09 KG  

                                                          NET (IN - OUT):    430576.0    
                                                   DISCREPANCY (PERCENT):   0.4178531    
     1 CALLS TO GCG PACKAGE FOR TRANSPORT TIME STEP  44 IN FLOW TIME STEP   1 STRESS PERIOD   2
     3 TOTAL ITERATIONS



 >>>>>>>>>>>>>>>>>>>>>>>>>>>>>>>>>>>>>>>>>>>>>>>>>>>>>>>FOR COMPONENT NO. 01<<<<<<<<<<<<<<<<<<<<<<<<<<<<<<<<<<<<<<<<<<<<<<<<<<<<<<<


                                            -------------------------------------------
                                                      TRANSPORT STEP NO.   44
                                            -------------------------------------------

 TOTAL ELAPSED TIME SINCE BEGINNING OF SIMULATION =   10515.92    D   
 .....................................................................

                     CUMMULATIVE MASS BUDGETS AT END OF TRANSPORT STEP   44, TIME STEP    1, STRESS PERIOD    2
                     ------------------------------------------------------------------------------------------

                                                             IN                           OUT
                                                      ----------------             ----------------
                               CONSTANT CONCENTRATION:    0.000000                    0.000000    
                                        CONSTANT HEAD:    0.000000                   -1091.618    
                                                WELLS:   0.7299993E+08                0.000000    
                               1ST/0TH ORDER REACTION:    0.000000                    0.000000    
                                MASS STORAGE (SOLUTE):   0.2232337E+08              -0.7245478E+08
                                MASS STORAGE (SORBED):    8608465.                  -0.3104370E+08
                            ---------------------------------------------------------------------------
                                              [TOTAL]:   0.1039318E+09 KG           -0.1034996E+09 KG  

                                                          NET (IN - OUT):    432184.0    
                                                   DISCREPANCY (PERCENT):   0.4167008    
     1 CALLS TO GCG PACKAGE FOR TRANSPORT TIME STEP  45 IN FLOW TIME STEP   1 STRESS PERIOD   2
     3 TOTAL ITERATIONS



 >>>>>>>>>>>>>>>>>>>>>>>>>>>>>>>>>>>>>>>>>>>>>>>>>>>>>>>FOR COMPONENT NO. 01<<<<<<<<<<<<<<<<<<<<<<<<<<<<<<<<<<<<<<<<<<<<<<<<<<<<<<<


                                            -------------------------------------------
                                                      TRANSPORT STEP NO.   45
                                            -------------------------------------------

 TOTAL ELAPSED TIME SINCE BEGINNING OF SIMULATION =   10589.00    D   
 .....................................................................

                     CUMMULATIVE MASS BUDGETS AT END OF TRANSPORT STEP   45, TIME STEP    1, STRESS PERIOD    2
                     ------------------------------------------------------------------------------------------

                                                             IN                           OUT
                                                      ----------------             ----------------
                               CONSTANT CONCENTRATION:    0.000000                    0.000000    
                                        CONSTANT HEAD:    0.000000                   -1350.197    
                                                WELLS:   0.7299993E+08                0.000000    
                               1ST/0TH ORDER REACTION:    0.000000                    0.000000    
                                MASS STORAGE (SOLUTE):   0.2279971E+08              -0.7291642E+08
                                MASS STORAGE (SORBED):    8802270.                  -0.3125035E+08
                            ---------------------------------------------------------------------------
                                              [TOTAL]:   0.1046019E+09 KG           -0.1041681E+09 KG  

                                                          NET (IN - OUT):    433784.0    
                                                   DISCREPANCY (PERCENT):   0.4155615    
     1 CALLS TO GCG PACKAGE FOR TRANSPORT TIME STEP  46 IN FLOW TIME STEP   1 STRESS PERIOD   2
     3 TOTAL ITERATIONS



 >>>>>>>>>>>>>>>>>>>>>>>>>>>>>>>>>>>>>>>>>>>>>>>>>>>>>>>FOR COMPONENT NO. 01<<<<<<<<<<<<<<<<<<<<<<<<<<<<<<<<<<<<<<<<<<<<<<<<<<<<<<<


                                            -------------------------------------------
                                                      TRANSPORT STEP NO.   46
                                            -------------------------------------------

 TOTAL ELAPSED TIME SINCE BEGINNING OF SIMULATION =   10662.09    D   
 .....................................................................

                     CUMMULATIVE MASS BUDGETS AT END OF TRANSPORT STEP   46, TIME STEP    1, STRESS PERIOD    2
                     ------------------------------------------------------------------------------------------

                                                             IN                           OUT
                                                      ----------------             ----------------
                               CONSTANT CONCENTRATION:    0.000000                    0.000000    
                                        CONSTANT HEAD:    0.000000                   -1660.717    
                                                WELLS:   0.7299993E+08                0.000000    
                               1ST/0TH ORDER REACTION:    0.000000                    0.000000    
                                MASS STORAGE (SOLUTE):   0.2327471E+08              -0.7337684E+08
                                MASS STORAGE (SORBED):    8995784.                  -0.3145656E+08
                            ---------------------------------------------------------------------------
                                              [TOTAL]:   0.1052704E+09 KG           -0.1048351E+09 KG  

                                                          NET (IN - OUT):    435360.0    
                                                   DISCREPANCY (PERCENT):   0.4144204    
     1 CALLS TO GCG PACKAGE FOR TRANSPORT TIME STEP  47 IN FLOW TIME STEP   1 STRESS PERIOD   2
     3 TOTAL ITERATIONS



 >>>>>>>>>>>>>>>>>>>>>>>>>>>>>>>>>>>>>>>>>>>>>>>>>>>>>>>FOR COMPONENT NO. 01<<<<<<<<<<<<<<<<<<<<<<<<<<<<<<<<<<<<<<<<<<<<<<<<<<<<<<<


                                            -------------------------------------------
                                                      TRANSPORT STEP NO.   47
                                            -------------------------------------------

 TOTAL ELAPSED TIME SINCE BEGINNING OF SIMULATION =   10735.18    D   
 .....................................................................

                     CUMMULATIVE MASS BUDGETS AT END OF TRANSPORT STEP   47, TIME STEP    1, STRESS PERIOD    2
                     ------------------------------------------------------------------------------------------

                                                             IN                           OUT
                                                      ----------------             ----------------
                               CONSTANT CONCENTRATION:    0.000000                    0.000000    
                                        CONSTANT HEAD:    0.000000                   -2031.697    
                                                WELLS:   0.7299993E+08                0.000000    
                               1ST/0TH ORDER REACTION:    0.000000                    0.000000    
                                MASS STORAGE (SOLUTE):   0.2374832E+08              -0.7383596E+08
                                MASS STORAGE (SORBED):    9188984.                  -0.3166230E+08
                            ---------------------------------------------------------------------------
                                              [TOTAL]:   0.1059372E+09 KG           -0.1055003E+09 KG  

                                                          NET (IN - OUT):    436936.0    
                                                   DISCREPANCY (PERCENT):   0.4133003    
     1 CALLS TO GCG PACKAGE FOR TRANSPORT TIME STEP  48 IN FLOW TIME STEP   1 STRESS PERIOD   2
     3 TOTAL ITERATIONS



 >>>>>>>>>>>>>>>>>>>>>>>>>>>>>>>>>>>>>>>>>>>>>>>>>>>>>>>FOR COMPONENT NO. 01<<<<<<<<<<<<<<<<<<<<<<<<<<<<<<<<<<<<<<<<<<<<<<<<<<<<<<<


                                            -------------------------------------------
                                                      TRANSPORT STEP NO.   48
                                            -------------------------------------------

 TOTAL ELAPSED TIME SINCE BEGINNING OF SIMULATION =   10808.27    D   
 .....................................................................

                     CUMMULATIVE MASS BUDGETS AT END OF TRANSPORT STEP   48, TIME STEP    1, STRESS PERIOD    2
                     ------------------------------------------------------------------------------------------

                                                             IN                           OUT
                                                      ----------------             ----------------
                               CONSTANT CONCENTRATION:    0.000000                    0.000000    
                                        CONSTANT HEAD:    0.000000                   -2472.719    
                                                WELLS:   0.7299993E+08                0.000000    
                               1ST/0TH ORDER REACTION:    0.000000                    0.000000    
                                MASS STORAGE (SOLUTE):   0.2422074E+08              -0.7429399E+08
                                MASS STORAGE (SORBED):    9381941.                  -0.3186766E+08
                            ---------------------------------------------------------------------------
                                              [TOTAL]:   0.1066026E+09 KG           -0.1061641E+09 KG  

                                                          NET (IN - OUT):    438488.0    
                                                   DISCREPANCY (PERCENT):   0.4121772    
     1 CALLS TO GCG PACKAGE FOR TRANSPORT TIME STEP  49 IN FLOW TIME STEP   1 STRESS PERIOD   2
     3 TOTAL ITERATIONS



 >>>>>>>>>>>>>>>>>>>>>>>>>>>>>>>>>>>>>>>>>>>>>>>>>>>>>>>FOR COMPONENT NO. 01<<<<<<<<<<<<<<<<<<<<<<<<<<<<<<<<<<<<<<<<<<<<<<<<<<<<<<<


                                            -------------------------------------------
                                                      TRANSPORT STEP NO.   49
                                            -------------------------------------------

 TOTAL ELAPSED TIME SINCE BEGINNING OF SIMULATION =   10881.36    D   
 .....................................................................

                     CUMMULATIVE MASS BUDGETS AT END OF TRANSPORT STEP   49, TIME STEP    1, STRESS PERIOD    2
                     ------------------------------------------------------------------------------------------

                                                             IN                           OUT
                                                      ----------------             ----------------
                               CONSTANT CONCENTRATION:    0.000000                    0.000000    
                                        CONSTANT HEAD:    0.000000                   -2994.510    
                                                WELLS:   0.7299993E+08                0.000000    
                               1ST/0TH ORDER REACTION:    0.000000                    0.000000    
                                MASS STORAGE (SOLUTE):   0.2469190E+08              -0.7475085E+08
                                MASS STORAGE (SORBED):    9574621.                  -0.3207258E+08
                            ---------------------------------------------------------------------------
                                              [TOTAL]:   0.1072664E+09 KG           -0.1068264E+09 KG  

                                                          NET (IN - OUT):    440032.0    
                                                   DISCREPANCY (PERCENT):   0.4110665    
     1 CALLS TO GCG PACKAGE FOR TRANSPORT TIME STEP  50 IN FLOW TIME STEP   1 STRESS PERIOD   2
     3 TOTAL ITERATIONS



 >>>>>>>>>>>>>>>>>>>>>>>>>>>>>>>>>>>>>>>>>>>>>>>>>>>>>>>FOR COMPONENT NO. 01<<<<<<<<<<<<<<<<<<<<<<<<<<<<<<<<<<<<<<<<<<<<<<<<<<<<<<<


                                            -------------------------------------------
                                                      TRANSPORT STEP NO.   50
                                            -------------------------------------------

 TOTAL ELAPSED TIME SINCE BEGINNING OF SIMULATION =   10954.45    D   
 .....................................................................

                     CUMMULATIVE MASS BUDGETS AT END OF TRANSPORT STEP   50, TIME STEP    1, STRESS PERIOD    2
                     ------------------------------------------------------------------------------------------

                                                             IN                           OUT
                                                      ----------------             ----------------
                               CONSTANT CONCENTRATION:    0.000000                    0.000000    
                                        CONSTANT HEAD:    0.000000                   -3609.037    
                                                WELLS:   0.7299993E+08                0.000000    
                               1ST/0TH ORDER REACTION:    0.000000                    0.000000    
                                MASS STORAGE (SOLUTE):   0.2516172E+08              -0.7520644E+08
                                MASS STORAGE (SORBED):    9766993.                  -0.3227704E+08
                            ---------------------------------------------------------------------------
                                              [TOTAL]:   0.1079286E+09 KG           -0.1074871E+09 KG  

                                                          NET (IN - OUT):    441552.0    
                                                   DISCREPANCY (PERCENT):   0.4099534    
     1 CALLS TO GCG PACKAGE FOR TRANSPORT TIME STEP  51 IN FLOW TIME STEP   1 STRESS PERIOD   2
     3 TOTAL ITERATIONS



 >>>>>>>>>>>>>>>>>>>>>>>>>>>>>>>>>>>>>>>>>>>>>>>>>>>>>>>FOR COMPONENT NO. 01<<<<<<<<<<<<<<<<<<<<<<<<<<<<<<<<<<<<<<<<<<<<<<<<<<<<<<<


                                            -------------------------------------------
                                                      TRANSPORT STEP NO.   51
                                            -------------------------------------------

 TOTAL ELAPSED TIME SINCE BEGINNING OF SIMULATION =   11027.54    D   
 .....................................................................

                     CUMMULATIVE MASS BUDGETS AT END OF TRANSPORT STEP   51, TIME STEP    1, STRESS PERIOD    2
                     ------------------------------------------------------------------------------------------

                                                             IN                           OUT
                                                      ----------------             ----------------
                               CONSTANT CONCENTRATION:    0.000000                    0.000000    
                                        CONSTANT HEAD:    0.000000                   -4329.582    
                                                WELLS:   0.7299993E+08                0.000000    
                               1ST/0TH ORDER REACTION:    0.000000                    0.000000    
                                MASS STORAGE (SOLUTE):   0.2563020E+08              -0.7566075E+08
                                MASS STORAGE (SORBED):    9959047.                  -0.3248102E+08
                            ---------------------------------------------------------------------------
                                              [TOTAL]:   0.1085892E+09 KG           -0.1081461E+09 KG  

                                                          NET (IN - OUT):    443080.0    
                                                   DISCREPANCY (PERCENT):   0.4088675    
     1 CALLS TO GCG PACKAGE FOR TRANSPORT TIME STEP  52 IN FLOW TIME STEP   1 STRESS PERIOD   2
     3 TOTAL ITERATIONS



 >>>>>>>>>>>>>>>>>>>>>>>>>>>>>>>>>>>>>>>>>>>>>>>>>>>>>>>FOR COMPONENT NO. 01<<<<<<<<<<<<<<<<<<<<<<<<<<<<<<<<<<<<<<<<<<<<<<<<<<<<<<<


                                            -------------------------------------------
                                                      TRANSPORT STEP NO.   52
                                            -------------------------------------------

 TOTAL ELAPSED TIME SINCE BEGINNING OF SIMULATION =   11100.63    D   
 .....................................................................

                     CUMMULATIVE MASS BUDGETS AT END OF TRANSPORT STEP   52, TIME STEP    1, STRESS PERIOD    2
                     ------------------------------------------------------------------------------------------

                                                             IN                           OUT
                                                      ----------------             ----------------
                               CONSTANT CONCENTRATION:    0.000000                    0.000000    
                                        CONSTANT HEAD:    0.000000                   -5170.839    
                                                WELLS:   0.7299993E+08                0.000000    
                               1ST/0TH ORDER REACTION:    0.000000                    0.000000    
                                MASS STORAGE (SOLUTE):   0.2609750E+08              -0.7611394E+08
                                MASS STORAGE (SORBED):   0.1015084E+08              -0.3268459E+08
                            ---------------------------------------------------------------------------
                                              [TOTAL]:   0.1092483E+09 KG           -0.1088037E+09 KG  

                                                          NET (IN - OUT):    444576.0    
                                                   DISCREPANCY (PERCENT):   0.4077707    
     1 CALLS TO GCG PACKAGE FOR TRANSPORT TIME STEP  53 IN FLOW TIME STEP   1 STRESS PERIOD   2
     3 TOTAL ITERATIONS



 >>>>>>>>>>>>>>>>>>>>>>>>>>>>>>>>>>>>>>>>>>>>>>>>>>>>>>>FOR COMPONENT NO. 01<<<<<<<<<<<<<<<<<<<<<<<<<<<<<<<<<<<<<<<<<<<<<<<<<<<<<<<


                                            -------------------------------------------
                                                      TRANSPORT STEP NO.   53
                                            -------------------------------------------

 TOTAL ELAPSED TIME SINCE BEGINNING OF SIMULATION =   11173.72    D   
 .....................................................................

                     CUMMULATIVE MASS BUDGETS AT END OF TRANSPORT STEP   53, TIME STEP    1, STRESS PERIOD    2
                     ------------------------------------------------------------------------------------------

                                                             IN                           OUT
                                                      ----------------             ----------------
                               CONSTANT CONCENTRATION:    0.000000                    0.000000    
                                        CONSTANT HEAD:    0.000000                   -6148.996    
                                                WELLS:   0.7299993E+08                0.000000    
                               1ST/0TH ORDER REACTION:    0.000000                    0.000000    
                                MASS STORAGE (SOLUTE):   0.2656359E+08              -0.7656596E+08
                                MASS STORAGE (SORBED):   0.1034236E+08              -0.3288771E+08
                            ---------------------------------------------------------------------------
                                              [TOTAL]:   0.1099059E+09 KG           -0.1094598E+09 KG  

                                                          NET (IN - OUT):    446064.0    
                                                   DISCREPANCY (PERCENT):   0.4066853    
     1 CALLS TO GCG PACKAGE FOR TRANSPORT TIME STEP  54 IN FLOW TIME STEP   1 STRESS PERIOD   2
     3 TOTAL ITERATIONS



 >>>>>>>>>>>>>>>>>>>>>>>>>>>>>>>>>>>>>>>>>>>>>>>>>>>>>>>FOR COMPONENT NO. 01<<<<<<<<<<<<<<<<<<<<<<<<<<<<<<<<<<<<<<<<<<<<<<<<<<<<<<<


                                            -------------------------------------------
                                                      TRANSPORT STEP NO.   54
                                            -------------------------------------------

 TOTAL ELAPSED TIME SINCE BEGINNING OF SIMULATION =   11246.80    D   
 .....................................................................

                     CUMMULATIVE MASS BUDGETS AT END OF TRANSPORT STEP   54, TIME STEP    1, STRESS PERIOD    2
                     ------------------------------------------------------------------------------------------

                                                             IN                           OUT
                                                      ----------------             ----------------
                               CONSTANT CONCENTRATION:    0.000000                    0.000000    
                                        CONSTANT HEAD:    0.000000                   -7281.823    
                                                WELLS:   0.7299993E+08                0.000000    
                               1ST/0TH ORDER REACTION:    0.000000                    0.000000    
                                MASS STORAGE (SOLUTE):   0.2702831E+08              -0.7701664E+08
                                MASS STORAGE (SORBED):   0.1053355E+08              -0.3309033E+08
                            ---------------------------------------------------------------------------
                                              [TOTAL]:   0.1105618E+09 KG           -0.1101142E+09 KG  

                                                          NET (IN - OUT):    447544.0    
                                                   DISCREPANCY (PERCENT):   0.4056118    
     1 CALLS TO GCG PACKAGE FOR TRANSPORT TIME STEP  55 IN FLOW TIME STEP   1 STRESS PERIOD   2
     3 TOTAL ITERATIONS



 >>>>>>>>>>>>>>>>>>>>>>>>>>>>>>>>>>>>>>>>>>>>>>>>>>>>>>>FOR COMPONENT NO. 01<<<<<<<<<<<<<<<<<<<<<<<<<<<<<<<<<<<<<<<<<<<<<<<<<<<<<<<


                                            -------------------------------------------
                                                      TRANSPORT STEP NO.   55
                                            -------------------------------------------

 TOTAL ELAPSED TIME SINCE BEGINNING OF SIMULATION =   11319.89    D   
 .....................................................................

                     CUMMULATIVE MASS BUDGETS AT END OF TRANSPORT STEP   55, TIME STEP    1, STRESS PERIOD    2
                     ------------------------------------------------------------------------------------------

                                                             IN                           OUT
                                                      ----------------             ----------------
                               CONSTANT CONCENTRATION:    0.000000                    0.000000    
                                        CONSTANT HEAD:    0.000000                   -8588.754    
                                                WELLS:   0.7299993E+08                0.000000    
                               1ST/0TH ORDER REACTION:    0.000000                    0.000000    
                                MASS STORAGE (SOLUTE):   0.2749175E+08              -0.7746604E+08
                                MASS STORAGE (SORBED):   0.1072442E+08              -0.3329245E+08
                            ---------------------------------------------------------------------------
                                              [TOTAL]:   0.1112161E+09 KG           -0.1107671E+09 KG  

                                                          NET (IN - OUT):    449016.0    
                                                   DISCREPANCY (PERCENT):   0.4045496    
     1 CALLS TO GCG PACKAGE FOR TRANSPORT TIME STEP  56 IN FLOW TIME STEP   1 STRESS PERIOD   2
     3 TOTAL ITERATIONS



 >>>>>>>>>>>>>>>>>>>>>>>>>>>>>>>>>>>>>>>>>>>>>>>>>>>>>>>FOR COMPONENT NO. 01<<<<<<<<<<<<<<<<<<<<<<<<<<<<<<<<<<<<<<<<<<<<<<<<<<<<<<<


                                            -------------------------------------------
                                                      TRANSPORT STEP NO.   56
                                            -------------------------------------------

 TOTAL ELAPSED TIME SINCE BEGINNING OF SIMULATION =   11392.98    D   
 .....................................................................

                     CUMMULATIVE MASS BUDGETS AT END OF TRANSPORT STEP   56, TIME STEP    1, STRESS PERIOD    2
                     ------------------------------------------------------------------------------------------

                                                             IN                           OUT
                                                      ----------------             ----------------
                               CONSTANT CONCENTRATION:    0.000000                    0.000000    
                                        CONSTANT HEAD:    0.000000                   -10090.97    
                                                WELLS:   0.7299993E+08                0.000000    
                               1ST/0TH ORDER REACTION:    0.000000                    0.000000    
                                MASS STORAGE (SOLUTE):   0.2795405E+08              -0.7791431E+08
                                MASS STORAGE (SORBED):   0.1091503E+08              -0.3349414E+08
                            ---------------------------------------------------------------------------
                                              [TOTAL]:   0.1118690E+09 KG           -0.1114185E+09 KG  

                                                          NET (IN - OUT):    450480.0    
                                                   DISCREPANCY (PERCENT):   0.4034976    
     1 CALLS TO GCG PACKAGE FOR TRANSPORT TIME STEP  57 IN FLOW TIME STEP   1 STRESS PERIOD   2
     3 TOTAL ITERATIONS



 >>>>>>>>>>>>>>>>>>>>>>>>>>>>>>>>>>>>>>>>>>>>>>>>>>>>>>>FOR COMPONENT NO. 01<<<<<<<<<<<<<<<<<<<<<<<<<<<<<<<<<<<<<<<<<<<<<<<<<<<<<<<


                                            -------------------------------------------
                                                      TRANSPORT STEP NO.   57
                                            -------------------------------------------

 TOTAL ELAPSED TIME SINCE BEGINNING OF SIMULATION =   11466.07    D   
 .....................................................................

                     CUMMULATIVE MASS BUDGETS AT END OF TRANSPORT STEP   57, TIME STEP    1, STRESS PERIOD    2
                     ------------------------------------------------------------------------------------------

                                                             IN                           OUT
                                                      ----------------             ----------------
                               CONSTANT CONCENTRATION:    0.000000                    0.000000    
                                        CONSTANT HEAD:    0.000000                   -11811.49    
                                                WELLS:   0.7299993E+08                0.000000    
                               1ST/0TH ORDER REACTION:    0.000000                    0.000000    
                                MASS STORAGE (SOLUTE):   0.2841509E+08              -0.7836130E+08
                                MASS STORAGE (SORBED):   0.1110533E+08              -0.3369532E+08
                            ---------------------------------------------------------------------------
                                              [TOTAL]:   0.1125204E+09 KG           -0.1120684E+09 KG  

                                                          NET (IN - OUT):    451928.0    
                                                   DISCREPANCY (PERCENT):   0.4024493    
     1 CALLS TO GCG PACKAGE FOR TRANSPORT TIME STEP  58 IN FLOW TIME STEP   1 STRESS PERIOD   2
     3 TOTAL ITERATIONS



 >>>>>>>>>>>>>>>>>>>>>>>>>>>>>>>>>>>>>>>>>>>>>>>>>>>>>>>FOR COMPONENT NO. 01<<<<<<<<<<<<<<<<<<<<<<<<<<<<<<<<<<<<<<<<<<<<<<<<<<<<<<<


                                            -------------------------------------------
                                                      TRANSPORT STEP NO.   58
                                            -------------------------------------------

 TOTAL ELAPSED TIME SINCE BEGINNING OF SIMULATION =   11539.16    D   
 .....................................................................

                     CUMMULATIVE MASS BUDGETS AT END OF TRANSPORT STEP   58, TIME STEP    1, STRESS PERIOD    2
                     ------------------------------------------------------------------------------------------

                                                             IN                           OUT
                                                      ----------------             ----------------
                               CONSTANT CONCENTRATION:    0.000000                    0.000000    
                                        CONSTANT HEAD:    0.000000                   -13775.21    
                                                WELLS:   0.7299993E+08                0.000000    
                               1ST/0TH ORDER REACTION:    0.000000                    0.000000    
                                MASS STORAGE (SOLUTE):   0.2887486E+08              -0.7880698E+08
                                MASS STORAGE (SORBED):   0.1129532E+08              -0.3389599E+08
                            ---------------------------------------------------------------------------
                                              [TOTAL]:   0.1131701E+09 KG           -0.1127168E+09 KG  

                                                          NET (IN - OUT):    453360.0    
                                                   DISCREPANCY (PERCENT):   0.4014045    
     1 CALLS TO GCG PACKAGE FOR TRANSPORT TIME STEP  59 IN FLOW TIME STEP   1 STRESS PERIOD   2
     3 TOTAL ITERATIONS



 >>>>>>>>>>>>>>>>>>>>>>>>>>>>>>>>>>>>>>>>>>>>>>>>>>>>>>>FOR COMPONENT NO. 01<<<<<<<<<<<<<<<<<<<<<<<<<<<<<<<<<<<<<<<<<<<<<<<<<<<<<<<


                                            -------------------------------------------
                                                      TRANSPORT STEP NO.   59
                                            -------------------------------------------

 TOTAL ELAPSED TIME SINCE BEGINNING OF SIMULATION =   11612.25    D   
 .....................................................................

                     CUMMULATIVE MASS BUDGETS AT END OF TRANSPORT STEP   59, TIME STEP    1, STRESS PERIOD    2
                     ------------------------------------------------------------------------------------------

                                                             IN                           OUT
                                                      ----------------             ----------------
                               CONSTANT CONCENTRATION:    0.000000                    0.000000    
                                        CONSTANT HEAD:    0.000000                   -16009.04    
                                                WELLS:   0.7299993E+08                0.000000    
                               1ST/0TH ORDER REACTION:    0.000000                    0.000000    
                                MASS STORAGE (SOLUTE):   0.2933339E+08              -0.7925138E+08
                                MASS STORAGE (SORBED):   0.1148500E+08              -0.3409615E+08
                            ---------------------------------------------------------------------------
                                              [TOTAL]:   0.1138183E+09 KG           -0.1133635E+09 KG  

                                                          NET (IN - OUT):    454784.0    
                                                   DISCREPANCY (PERCENT):   0.4003700    
     1 CALLS TO GCG PACKAGE FOR TRANSPORT TIME STEP  60 IN FLOW TIME STEP   1 STRESS PERIOD   2
     3 TOTAL ITERATIONS



 >>>>>>>>>>>>>>>>>>>>>>>>>>>>>>>>>>>>>>>>>>>>>>>>>>>>>>>FOR COMPONENT NO. 01<<<<<<<<<<<<<<<<<<<<<<<<<<<<<<<<<<<<<<<<<<<<<<<<<<<<<<<


                                            -------------------------------------------
                                                      TRANSPORT STEP NO.   60
                                            -------------------------------------------

 TOTAL ELAPSED TIME SINCE BEGINNING OF SIMULATION =   11685.34    D   
 .....................................................................

                     CUMMULATIVE MASS BUDGETS AT END OF TRANSPORT STEP   60, TIME STEP    1, STRESS PERIOD    2
                     ------------------------------------------------------------------------------------------

                                                             IN                           OUT
                                                      ----------------             ----------------
                               CONSTANT CONCENTRATION:    0.000000                    0.000000    
                                        CONSTANT HEAD:    0.000000                   -18541.91    
                                                WELLS:   0.7299993E+08                0.000000    
                               1ST/0TH ORDER REACTION:    0.000000                    0.000000    
                                MASS STORAGE (SOLUTE):   0.2979070E+08              -0.7969447E+08
                                MASS STORAGE (SORBED):   0.1167437E+08              -0.3429578E+08
                            ---------------------------------------------------------------------------
                                              [TOTAL]:   0.1144650E+09 KG           -0.1140088E+09 KG  

                                                          NET (IN - OUT):    456208.0    
                                                   DISCREPANCY (PERCENT):   0.3993526    
     1 CALLS TO GCG PACKAGE FOR TRANSPORT TIME STEP  61 IN FLOW TIME STEP   1 STRESS PERIOD   2
     3 TOTAL ITERATIONS



 >>>>>>>>>>>>>>>>>>>>>>>>>>>>>>>>>>>>>>>>>>>>>>>>>>>>>>>FOR COMPONENT NO. 01<<<<<<<<<<<<<<<<<<<<<<<<<<<<<<<<<<<<<<<<<<<<<<<<<<<<<<<


                                            -------------------------------------------
                                                      TRANSPORT STEP NO.   61
                                            -------------------------------------------

 TOTAL ELAPSED TIME SINCE BEGINNING OF SIMULATION =   11758.43    D   
 .....................................................................

                     CUMMULATIVE MASS BUDGETS AT END OF TRANSPORT STEP   61, TIME STEP    1, STRESS PERIOD    2
                     ------------------------------------------------------------------------------------------

                                                             IN                           OUT
                                                      ----------------             ----------------
                               CONSTANT CONCENTRATION:    0.000000                    0.000000    
                                        CONSTANT HEAD:    0.000000                   -21404.85    
                                                WELLS:   0.7299993E+08                0.000000    
                               1ST/0TH ORDER REACTION:    0.000000                    0.000000    
                                MASS STORAGE (SOLUTE):   0.3024681E+08              -0.8013628E+08
                                MASS STORAGE (SORBED):   0.1186344E+08              -0.3449489E+08
                            ---------------------------------------------------------------------------
                                              [TOTAL]:   0.1151102E+09 KG           -0.1146526E+09 KG  

                                                          NET (IN - OUT):    457616.0    
                                                   DISCREPANCY (PERCENT):   0.3983378    
     1 CALLS TO GCG PACKAGE FOR TRANSPORT TIME STEP  62 IN FLOW TIME STEP   1 STRESS PERIOD   2
     3 TOTAL ITERATIONS



 >>>>>>>>>>>>>>>>>>>>>>>>>>>>>>>>>>>>>>>>>>>>>>>>>>>>>>>FOR COMPONENT NO. 01<<<<<<<<<<<<<<<<<<<<<<<<<<<<<<<<<<<<<<<<<<<<<<<<<<<<<<<


                                            -------------------------------------------
                                                      TRANSPORT STEP NO.   62
                                            -------------------------------------------

 TOTAL ELAPSED TIME SINCE BEGINNING OF SIMULATION =   11831.52    D   
 .....................................................................

                     CUMMULATIVE MASS BUDGETS AT END OF TRANSPORT STEP   62, TIME STEP    1, STRESS PERIOD    2
                     ------------------------------------------------------------------------------------------

                                                             IN                           OUT
                                                      ----------------             ----------------
                               CONSTANT CONCENTRATION:    0.000000                    0.000000    
                                        CONSTANT HEAD:    0.000000                   -24631.07    
                                                WELLS:   0.7299993E+08                0.000000    
                               1ST/0TH ORDER REACTION:    0.000000                    0.000000    
                                MASS STORAGE (SOLUTE):   0.3070169E+08              -0.8057674E+08
                                MASS STORAGE (SORBED):   0.1205220E+08              -0.3469345E+08
                            ---------------------------------------------------------------------------
                                              [TOTAL]:   0.1157538E+09 KG           -0.1152948E+09 KG  

                                                          NET (IN - OUT):    459000.0    
                                                   DISCREPANCY (PERCENT):   0.3973189    
     1 CALLS TO GCG PACKAGE FOR TRANSPORT TIME STEP  63 IN FLOW TIME STEP   1 STRESS PERIOD   2
     3 TOTAL ITERATIONS



 >>>>>>>>>>>>>>>>>>>>>>>>>>>>>>>>>>>>>>>>>>>>>>>>>>>>>>>FOR COMPONENT NO. 01<<<<<<<<<<<<<<<<<<<<<<<<<<<<<<<<<<<<<<<<<<<<<<<<<<<<<<<


                                            -------------------------------------------
                                                      TRANSPORT STEP NO.   63
                                            -------------------------------------------

 TOTAL ELAPSED TIME SINCE BEGINNING OF SIMULATION =   11904.60    D   
 .....................................................................

                     CUMMULATIVE MASS BUDGETS AT END OF TRANSPORT STEP   63, TIME STEP    1, STRESS PERIOD    2
                     ------------------------------------------------------------------------------------------

                                                             IN                           OUT
                                                      ----------------             ----------------
                               CONSTANT CONCENTRATION:    0.000000                    0.000000    
                                        CONSTANT HEAD:    0.000000                   -28256.00    
                                                WELLS:   0.7299993E+08                0.000000    
                               1ST/0TH ORDER REACTION:    0.000000                    0.000000    
                                MASS STORAGE (SOLUTE):   0.3115534E+08              -0.8101582E+08
                                MASS STORAGE (SORBED):   0.1224064E+08              -0.3489144E+08
                            ---------------------------------------------------------------------------
                                              [TOTAL]:   0.1163959E+09 KG           -0.1159355E+09 KG  

                                                          NET (IN - OUT):    460392.0    
                                                   DISCREPANCY (PERCENT):   0.3963235    
     1 CALLS TO GCG PACKAGE FOR TRANSPORT TIME STEP  64 IN FLOW TIME STEP   1 STRESS PERIOD   2
     3 TOTAL ITERATIONS



 >>>>>>>>>>>>>>>>>>>>>>>>>>>>>>>>>>>>>>>>>>>>>>>>>>>>>>>FOR COMPONENT NO. 01<<<<<<<<<<<<<<<<<<<<<<<<<<<<<<<<<<<<<<<<<<<<<<<<<<<<<<<


                                            -------------------------------------------
                                                      TRANSPORT STEP NO.   64
                                            -------------------------------------------

 TOTAL ELAPSED TIME SINCE BEGINNING OF SIMULATION =   11977.69    D   
 .....................................................................

                     CUMMULATIVE MASS BUDGETS AT END OF TRANSPORT STEP   64, TIME STEP    1, STRESS PERIOD    2
                     ------------------------------------------------------------------------------------------

                                                             IN                           OUT
                                                      ----------------             ----------------
                               CONSTANT CONCENTRATION:    0.000000                    0.000000    
                                        CONSTANT HEAD:    0.000000                   -32317.32    
                                                WELLS:   0.7299993E+08                0.000000    
                               1ST/0TH ORDER REACTION:    0.000000                    0.000000    
                                MASS STORAGE (SOLUTE):   0.3160783E+08              -0.8145358E+08
                                MASS STORAGE (SORBED):   0.1242879E+08              -0.3508887E+08
                            ---------------------------------------------------------------------------
                                              [TOTAL]:   0.1170365E+09 KG           -0.1165748E+09 KG  

                                                          NET (IN - OUT):    461768.0    
                                                   DISCREPANCY (PERCENT):   0.3953302    
     1 CALLS TO GCG PACKAGE FOR TRANSPORT TIME STEP  65 IN FLOW TIME STEP   1 STRESS PERIOD   2
     3 TOTAL ITERATIONS



 >>>>>>>>>>>>>>>>>>>>>>>>>>>>>>>>>>>>>>>>>>>>>>>>>>>>>>>FOR COMPONENT NO. 01<<<<<<<<<<<<<<<<<<<<<<<<<<<<<<<<<<<<<<<<<<<<<<<<<<<<<<<


                                            -------------------------------------------
                                                      TRANSPORT STEP NO.   65
                                            -------------------------------------------

 TOTAL ELAPSED TIME SINCE BEGINNING OF SIMULATION =   12050.78    D   
 .....................................................................

                     CUMMULATIVE MASS BUDGETS AT END OF TRANSPORT STEP   65, TIME STEP    1, STRESS PERIOD    2
                     ------------------------------------------------------------------------------------------

                                                             IN                           OUT
                                                      ----------------             ----------------
                               CONSTANT CONCENTRATION:    0.000000                    0.000000    
                                        CONSTANT HEAD:    0.000000                   -36855.01    
                                                WELLS:   0.7299993E+08                0.000000    
                               1ST/0TH ORDER REACTION:    0.000000                    0.000000    
                                MASS STORAGE (SOLUTE):   0.3205913E+08              -0.8188996E+08
                                MASS STORAGE (SORBED):   0.1261663E+08              -0.3528573E+08
                            ---------------------------------------------------------------------------
                                              [TOTAL]:   0.1176757E+09 KG           -0.1172125E+09 KG  

                                                          NET (IN - OUT):    463152.0    
                                                   DISCREPANCY (PERCENT):   0.3943595    
     1 CALLS TO GCG PACKAGE FOR TRANSPORT TIME STEP  66 IN FLOW TIME STEP   1 STRESS PERIOD   2
     3 TOTAL ITERATIONS



 >>>>>>>>>>>>>>>>>>>>>>>>>>>>>>>>>>>>>>>>>>>>>>>>>>>>>>>FOR COMPONENT NO. 01<<<<<<<<<<<<<<<<<<<<<<<<<<<<<<<<<<<<<<<<<<<<<<<<<<<<<<<


                                            -------------------------------------------
                                                      TRANSPORT STEP NO.   66
                                            -------------------------------------------

 TOTAL ELAPSED TIME SINCE BEGINNING OF SIMULATION =   12123.87    D   
 .....................................................................

                     CUMMULATIVE MASS BUDGETS AT END OF TRANSPORT STEP   66, TIME STEP    1, STRESS PERIOD    2
                     ------------------------------------------------------------------------------------------

                                                             IN                           OUT
                                                      ----------------             ----------------
                               CONSTANT CONCENTRATION:    0.000000                    0.000000    
                                        CONSTANT HEAD:    0.000000                   -41911.40    
                                                WELLS:   0.7299993E+08                0.000000    
                               1ST/0TH ORDER REACTION:    0.000000                    0.000000    
                                MASS STORAGE (SOLUTE):   0.3250924E+08              -0.8232493E+08
                                MASS STORAGE (SORBED):   0.1280416E+08              -0.3548198E+08
                            ---------------------------------------------------------------------------
                                              [TOTAL]:   0.1183133E+09 KG           -0.1178488E+09 KG  

                                                          NET (IN - OUT):    464512.0    
                                                   DISCREPANCY (PERCENT):   0.3933839    
     1 CALLS TO GCG PACKAGE FOR TRANSPORT TIME STEP  67 IN FLOW TIME STEP   1 STRESS PERIOD   2
     3 TOTAL ITERATIONS



 >>>>>>>>>>>>>>>>>>>>>>>>>>>>>>>>>>>>>>>>>>>>>>>>>>>>>>>FOR COMPONENT NO. 01<<<<<<<<<<<<<<<<<<<<<<<<<<<<<<<<<<<<<<<<<<<<<<<<<<<<<<<


                                            -------------------------------------------
                                                      TRANSPORT STEP NO.   67
                                            -------------------------------------------

 TOTAL ELAPSED TIME SINCE BEGINNING OF SIMULATION =   12196.96    D   
 .....................................................................

                     CUMMULATIVE MASS BUDGETS AT END OF TRANSPORT STEP   67, TIME STEP    1, STRESS PERIOD    2
                     ------------------------------------------------------------------------------------------

                                                             IN                           OUT
                                                      ----------------             ----------------
                               CONSTANT CONCENTRATION:    0.000000                    0.000000    
                                        CONSTANT HEAD:    0.000000                   -47531.15    
                                                WELLS:   0.7299993E+08                0.000000    
                               1ST/0TH ORDER REACTION:    0.000000                    0.000000    
                                MASS STORAGE (SOLUTE):   0.3295814E+08              -0.8275843E+08
                                MASS STORAGE (SORBED):   0.1299136E+08              -0.3567761E+08
                            ---------------------------------------------------------------------------
                                              [TOTAL]:   0.1189494E+09 KG           -0.1184836E+09 KG  

                                                          NET (IN - OUT):    465864.0    
                                                   DISCREPANCY (PERCENT):   0.3924173    
     1 CALLS TO GCG PACKAGE FOR TRANSPORT TIME STEP  68 IN FLOW TIME STEP   1 STRESS PERIOD   2
     3 TOTAL ITERATIONS



 >>>>>>>>>>>>>>>>>>>>>>>>>>>>>>>>>>>>>>>>>>>>>>>>>>>>>>>FOR COMPONENT NO. 01<<<<<<<<<<<<<<<<<<<<<<<<<<<<<<<<<<<<<<<<<<<<<<<<<<<<<<<


                                            -------------------------------------------
                                                      TRANSPORT STEP NO.   68
                                            -------------------------------------------

 TOTAL ELAPSED TIME SINCE BEGINNING OF SIMULATION =   12270.05    D   
 .....................................................................

                     CUMMULATIVE MASS BUDGETS AT END OF TRANSPORT STEP   68, TIME STEP    1, STRESS PERIOD    2
                     ------------------------------------------------------------------------------------------

                                                             IN                           OUT
                                                      ----------------             ----------------
                               CONSTANT CONCENTRATION:    0.000000                    0.000000    
                                        CONSTANT HEAD:    0.000000                   -53761.32    
                                                WELLS:   0.7299993E+08                0.000000    
                               1ST/0TH ORDER REACTION:    0.000000                    0.000000    
                                MASS STORAGE (SOLUTE):   0.3340588E+08              -0.8319050E+08
                                MASS STORAGE (SORBED):   0.1317827E+08              -0.3587261E+08
                            ---------------------------------------------------------------------------
                                              [TOTAL]:   0.1195841E+09 KG           -0.1191169E+09 KG  

                                                          NET (IN - OUT):    467200.0    
                                                   DISCREPANCY (PERCENT):   0.3914521    
     1 CALLS TO GCG PACKAGE FOR TRANSPORT TIME STEP  69 IN FLOW TIME STEP   1 STRESS PERIOD   2
     3 TOTAL ITERATIONS



 >>>>>>>>>>>>>>>>>>>>>>>>>>>>>>>>>>>>>>>>>>>>>>>>>>>>>>>FOR COMPONENT NO. 01<<<<<<<<<<<<<<<<<<<<<<<<<<<<<<<<<<<<<<<<<<<<<<<<<<<<<<<


                                            -------------------------------------------
                                                      TRANSPORT STEP NO.   69
                                            -------------------------------------------

 TOTAL ELAPSED TIME SINCE BEGINNING OF SIMULATION =   12343.14    D   
 .....................................................................

                     CUMMULATIVE MASS BUDGETS AT END OF TRANSPORT STEP   69, TIME STEP    1, STRESS PERIOD    2
                     ------------------------------------------------------------------------------------------

                                                             IN                           OUT
                                                      ----------------             ----------------
                               CONSTANT CONCENTRATION:    0.000000                    0.000000    
                                        CONSTANT HEAD:    0.000000                   -60651.34    
                                                WELLS:   0.7299993E+08                0.000000    
                               1ST/0TH ORDER REACTION:    0.000000                    0.000000    
                                MASS STORAGE (SOLUTE):   0.3385245E+08              -0.8362108E+08
                                MASS STORAGE (SORBED):   0.1336486E+08              -0.3606696E+08
                            ---------------------------------------------------------------------------
                                              [TOTAL]:   0.1202172E+09 KG           -0.1197487E+09 KG  

                                                          NET (IN - OUT):    468552.0    
                                                   DISCREPANCY (PERCENT):   0.3905154    
     1 CALLS TO GCG PACKAGE FOR TRANSPORT TIME STEP  70 IN FLOW TIME STEP   1 STRESS PERIOD   2
     3 TOTAL ITERATIONS



 >>>>>>>>>>>>>>>>>>>>>>>>>>>>>>>>>>>>>>>>>>>>>>>>>>>>>>>FOR COMPONENT NO. 01<<<<<<<<<<<<<<<<<<<<<<<<<<<<<<<<<<<<<<<<<<<<<<<<<<<<<<<


                                            -------------------------------------------
                                                      TRANSPORT STEP NO.   70
                                            -------------------------------------------

 TOTAL ELAPSED TIME SINCE BEGINNING OF SIMULATION =   12416.23    D   
 .....................................................................

                     CUMMULATIVE MASS BUDGETS AT END OF TRANSPORT STEP   70, TIME STEP    1, STRESS PERIOD    2
                     ------------------------------------------------------------------------------------------

                                                             IN                           OUT
                                                      ----------------             ----------------
                               CONSTANT CONCENTRATION:    0.000000                    0.000000    
                                        CONSTANT HEAD:    0.000000                   -68253.01    
                                                WELLS:   0.7299993E+08                0.000000    
                               1ST/0TH ORDER REACTION:    0.000000                    0.000000    
                                MASS STORAGE (SOLUTE):   0.3429785E+08              -0.8405014E+08
                                MASS STORAGE (SORBED):   0.1355115E+08              -0.3626066E+08
                            ---------------------------------------------------------------------------
                                              [TOTAL]:   0.1208489E+09 KG           -0.1203791E+09 KG  

                                                          NET (IN - OUT):    469864.0    
                                                   DISCREPANCY (PERCENT):   0.3895601    
     1 CALLS TO GCG PACKAGE FOR TRANSPORT TIME STEP  71 IN FLOW TIME STEP   1 STRESS PERIOD   2
     3 TOTAL ITERATIONS



 >>>>>>>>>>>>>>>>>>>>>>>>>>>>>>>>>>>>>>>>>>>>>>>>>>>>>>>FOR COMPONENT NO. 01<<<<<<<<<<<<<<<<<<<<<<<<<<<<<<<<<<<<<<<<<<<<<<<<<<<<<<<


                                            -------------------------------------------
                                                      TRANSPORT STEP NO.   71
                                            -------------------------------------------

 TOTAL ELAPSED TIME SINCE BEGINNING OF SIMULATION =   12489.32    D   
 .....................................................................

                     CUMMULATIVE MASS BUDGETS AT END OF TRANSPORT STEP   71, TIME STEP    1, STRESS PERIOD    2
                     ------------------------------------------------------------------------------------------

                                                             IN                           OUT
                                                      ----------------             ----------------
                               CONSTANT CONCENTRATION:    0.000000                    0.000000    
                                        CONSTANT HEAD:    0.000000                   -76620.52    
                                                WELLS:   0.7299993E+08                0.000000    
                               1ST/0TH ORDER REACTION:    0.000000                    0.000000    
                                MASS STORAGE (SOLUTE):   0.3474209E+08              -0.8447765E+08
                                MASS STORAGE (SORBED):   0.1373711E+08              -0.3645366E+08
                            ---------------------------------------------------------------------------
                                              [TOTAL]:   0.1214791E+09 KG           -0.1210079E+09 KG  

                                                          NET (IN - OUT):    471192.0    
                                                   DISCREPANCY (PERCENT):   0.3886327    
     1 CALLS TO GCG PACKAGE FOR TRANSPORT TIME STEP  72 IN FLOW TIME STEP   1 STRESS PERIOD   2
     3 TOTAL ITERATIONS



 >>>>>>>>>>>>>>>>>>>>>>>>>>>>>>>>>>>>>>>>>>>>>>>>>>>>>>>FOR COMPONENT NO. 01<<<<<<<<<<<<<<<<<<<<<<<<<<<<<<<<<<<<<<<<<<<<<<<<<<<<<<<


                                            -------------------------------------------
                                                      TRANSPORT STEP NO.   72
                                            -------------------------------------------

 TOTAL ELAPSED TIME SINCE BEGINNING OF SIMULATION =   12562.40    D   
 .....................................................................

                     CUMMULATIVE MASS BUDGETS AT END OF TRANSPORT STEP   72, TIME STEP    1, STRESS PERIOD    2
                     ------------------------------------------------------------------------------------------

                                                             IN                           OUT
                                                      ----------------             ----------------
                               CONSTANT CONCENTRATION:    0.000000                    0.000000    
                                        CONSTANT HEAD:    0.000000                   -85810.44    
                                                WELLS:   0.7299993E+08                0.000000    
                               1ST/0TH ORDER REACTION:    0.000000                    0.000000    
                                MASS STORAGE (SOLUTE):   0.3518520E+08              -0.8490360E+08
                                MASS STORAGE (SORBED):   0.1392278E+08              -0.3664597E+08
                            ---------------------------------------------------------------------------
                                              [TOTAL]:   0.1221079E+09 KG           -0.1216354E+09 KG  

                                                          NET (IN - OUT):    472528.0    
                                                   DISCREPANCY (PERCENT):   0.3877260    
     1 CALLS TO GCG PACKAGE FOR TRANSPORT TIME STEP  73 IN FLOW TIME STEP   1 STRESS PERIOD   2
     3 TOTAL ITERATIONS



 >>>>>>>>>>>>>>>>>>>>>>>>>>>>>>>>>>>>>>>>>>>>>>>>>>>>>>>FOR COMPONENT NO. 01<<<<<<<<<<<<<<<<<<<<<<<<<<<<<<<<<<<<<<<<<<<<<<<<<<<<<<<


                                            -------------------------------------------
                                                      TRANSPORT STEP NO.   73
                                            -------------------------------------------

 TOTAL ELAPSED TIME SINCE BEGINNING OF SIMULATION =   12635.49    D   
 .....................................................................

                     CUMMULATIVE MASS BUDGETS AT END OF TRANSPORT STEP   73, TIME STEP    1, STRESS PERIOD    2
                     ------------------------------------------------------------------------------------------

                                                             IN                           OUT
                                                      ----------------             ----------------
                               CONSTANT CONCENTRATION:    0.000000                    0.000000    
                                        CONSTANT HEAD:    0.000000                   -95881.62    
                                                WELLS:   0.7299993E+08                0.000000    
                               1ST/0TH ORDER REACTION:    0.000000                    0.000000    
                                MASS STORAGE (SOLUTE):   0.3562718E+08              -0.8532797E+08
                                MASS STORAGE (SORBED):   0.1410815E+08              -0.3683757E+08
                            ---------------------------------------------------------------------------
                                              [TOTAL]:   0.1227353E+09 KG           -0.1222614E+09 KG  

                                                          NET (IN - OUT):    473840.0    
                                                   DISCREPANCY (PERCENT):   0.3868134    
     1 CALLS TO GCG PACKAGE FOR TRANSPORT TIME STEP  74 IN FLOW TIME STEP   1 STRESS PERIOD   2
     3 TOTAL ITERATIONS



 >>>>>>>>>>>>>>>>>>>>>>>>>>>>>>>>>>>>>>>>>>>>>>>>>>>>>>>FOR COMPONENT NO. 01<<<<<<<<<<<<<<<<<<<<<<<<<<<<<<<<<<<<<<<<<<<<<<<<<<<<<<<


                                            -------------------------------------------
                                                      TRANSPORT STEP NO.   74
                                            -------------------------------------------

 TOTAL ELAPSED TIME SINCE BEGINNING OF SIMULATION =   12708.58    D   
 .....................................................................

                     CUMMULATIVE MASS BUDGETS AT END OF TRANSPORT STEP   74, TIME STEP    1, STRESS PERIOD    2
                     ------------------------------------------------------------------------------------------

                                                             IN                           OUT
                                                      ----------------             ----------------
                               CONSTANT CONCENTRATION:    0.000000                    0.000000    
                                        CONSTANT HEAD:    0.000000                   -106895.3    
                                                WELLS:   0.7299993E+08                0.000000    
                               1ST/0TH ORDER REACTION:    0.000000                    0.000000    
                                MASS STORAGE (SOLUTE):   0.3606798E+08              -0.8575063E+08
                                MASS STORAGE (SORBED):   0.1429318E+08              -0.3702841E+08
                            ---------------------------------------------------------------------------
                                              [TOTAL]:   0.1233611E+09 KG           -0.1228859E+09 KG  

                                                          NET (IN - OUT):    475152.0    
                                                   DISCREPANCY (PERCENT):   0.3859149    
     1 CALLS TO GCG PACKAGE FOR TRANSPORT TIME STEP  75 IN FLOW TIME STEP   1 STRESS PERIOD   2
     3 TOTAL ITERATIONS



 >>>>>>>>>>>>>>>>>>>>>>>>>>>>>>>>>>>>>>>>>>>>>>>>>>>>>>>FOR COMPONENT NO. 01<<<<<<<<<<<<<<<<<<<<<<<<<<<<<<<<<<<<<<<<<<<<<<<<<<<<<<<


                                            -------------------------------------------
                                                      TRANSPORT STEP NO.   75
                                            -------------------------------------------

 TOTAL ELAPSED TIME SINCE BEGINNING OF SIMULATION =   12781.67    D   
 .....................................................................

                     CUMMULATIVE MASS BUDGETS AT END OF TRANSPORT STEP   75, TIME STEP    1, STRESS PERIOD    2
                     ------------------------------------------------------------------------------------------

                                                             IN                           OUT
                                                      ----------------             ----------------
                               CONSTANT CONCENTRATION:    0.000000                    0.000000    
                                        CONSTANT HEAD:    0.000000                   -118914.9    
                                                WELLS:   0.7299993E+08                0.000000    
                               1ST/0TH ORDER REACTION:    0.000000                    0.000000    
                                MASS STORAGE (SOLUTE):   0.3650766E+08              -0.8617163E+08
                                MASS STORAGE (SORBED):   0.1447792E+08              -0.3721849E+08
                            ---------------------------------------------------------------------------
                                              [TOTAL]:   0.1239855E+09 KG           -0.1235090E+09 KG  

                                                          NET (IN - OUT):    476464.0    
                                                   DISCREPANCY (PERCENT):   0.3850299    
     1 CALLS TO GCG PACKAGE FOR TRANSPORT TIME STEP  76 IN FLOW TIME STEP   1 STRESS PERIOD   2
     3 TOTAL ITERATIONS



 >>>>>>>>>>>>>>>>>>>>>>>>>>>>>>>>>>>>>>>>>>>>>>>>>>>>>>>FOR COMPONENT NO. 01<<<<<<<<<<<<<<<<<<<<<<<<<<<<<<<<<<<<<<<<<<<<<<<<<<<<<<<


                                            -------------------------------------------
                                                      TRANSPORT STEP NO.   76
                                            -------------------------------------------

 TOTAL ELAPSED TIME SINCE BEGINNING OF SIMULATION =   12854.76    D   
 .....................................................................

                     CUMMULATIVE MASS BUDGETS AT END OF TRANSPORT STEP   76, TIME STEP    1, STRESS PERIOD    2
                     ------------------------------------------------------------------------------------------

                                                             IN                           OUT
                                                      ----------------             ----------------
                               CONSTANT CONCENTRATION:    0.000000                    0.000000    
                                        CONSTANT HEAD:    0.000000                   -132006.1    
                                                WELLS:   0.7299993E+08                0.000000    
                               1ST/0TH ORDER REACTION:    0.000000                    0.000000    
                                MASS STORAGE (SOLUTE):   0.3694622E+08              -0.8659093E+08
                                MASS STORAGE (SORBED):   0.1466235E+08              -0.3740780E+08
                            ---------------------------------------------------------------------------
                                              [TOTAL]:   0.1246085E+09 KG           -0.1241307E+09 KG  

                                                          NET (IN - OUT):    477760.0    
                                                   DISCREPANCY (PERCENT):   0.3841453    
     1 CALLS TO GCG PACKAGE FOR TRANSPORT TIME STEP  77 IN FLOW TIME STEP   1 STRESS PERIOD   2
     3 TOTAL ITERATIONS



 >>>>>>>>>>>>>>>>>>>>>>>>>>>>>>>>>>>>>>>>>>>>>>>>>>>>>>>FOR COMPONENT NO. 01<<<<<<<<<<<<<<<<<<<<<<<<<<<<<<<<<<<<<<<<<<<<<<<<<<<<<<<


                                            -------------------------------------------
                                                      TRANSPORT STEP NO.   77
                                            -------------------------------------------

 TOTAL ELAPSED TIME SINCE BEGINNING OF SIMULATION =   12927.85    D   
 .....................................................................

                     CUMMULATIVE MASS BUDGETS AT END OF TRANSPORT STEP   77, TIME STEP    1, STRESS PERIOD    2
                     ------------------------------------------------------------------------------------------

                                                             IN                           OUT
                                                      ----------------             ----------------
                               CONSTANT CONCENTRATION:    0.000000                    0.000000    
                                        CONSTANT HEAD:    0.000000                   -146236.8    
                                                WELLS:   0.7299993E+08                0.000000    
                               1ST/0TH ORDER REACTION:    0.000000                    0.000000    
                                MASS STORAGE (SOLUTE):   0.3738366E+08              -0.8700845E+08
                                MASS STORAGE (SORBED):   0.1484646E+08              -0.3759630E+08
                            ---------------------------------------------------------------------------
                                              [TOTAL]:   0.1252300E+09 KG           -0.1247510E+09 KG  

                                                          NET (IN - OUT):    479064.0    
                                                   DISCREPANCY (PERCENT):   0.3832803    
     1 CALLS TO GCG PACKAGE FOR TRANSPORT TIME STEP  78 IN FLOW TIME STEP   1 STRESS PERIOD   2
     3 TOTAL ITERATIONS



 >>>>>>>>>>>>>>>>>>>>>>>>>>>>>>>>>>>>>>>>>>>>>>>>>>>>>>>FOR COMPONENT NO. 01<<<<<<<<<<<<<<<<<<<<<<<<<<<<<<<<<<<<<<<<<<<<<<<<<<<<<<<


                                            -------------------------------------------
                                                      TRANSPORT STEP NO.   78
                                            -------------------------------------------

 TOTAL ELAPSED TIME SINCE BEGINNING OF SIMULATION =   13000.94    D   
 .....................................................................

                     CUMMULATIVE MASS BUDGETS AT END OF TRANSPORT STEP   78, TIME STEP    1, STRESS PERIOD    2
                     ------------------------------------------------------------------------------------------

                                                             IN                           OUT
                                                      ----------------             ----------------
                               CONSTANT CONCENTRATION:    0.000000                    0.000000    
                                        CONSTANT HEAD:    0.000000                   -161676.9    
                                                WELLS:   0.7299993E+08                0.000000    
                               1ST/0TH ORDER REACTION:    0.000000                    0.000000    
                                MASS STORAGE (SOLUTE):   0.3781998E+08              -0.8742417E+08
                                MASS STORAGE (SORBED):   0.1503027E+08              -0.3778396E+08
                            ---------------------------------------------------------------------------
                                              [TOTAL]:   0.1258502E+09 KG           -0.1253698E+09 KG  

                                                          NET (IN - OUT):    480368.0    
                                                   DISCREPANCY (PERCENT):   0.3824282    
     1 CALLS TO GCG PACKAGE FOR TRANSPORT TIME STEP  79 IN FLOW TIME STEP   1 STRESS PERIOD   2
     3 TOTAL ITERATIONS



 >>>>>>>>>>>>>>>>>>>>>>>>>>>>>>>>>>>>>>>>>>>>>>>>>>>>>>>FOR COMPONENT NO. 01<<<<<<<<<<<<<<<<<<<<<<<<<<<<<<<<<<<<<<<<<<<<<<<<<<<<<<<


                                            -------------------------------------------
                                                      TRANSPORT STEP NO.   79
                                            -------------------------------------------

 TOTAL ELAPSED TIME SINCE BEGINNING OF SIMULATION =   13074.03    D   
 .....................................................................

                     CUMMULATIVE MASS BUDGETS AT END OF TRANSPORT STEP   79, TIME STEP    1, STRESS PERIOD    2
                     ------------------------------------------------------------------------------------------

                                                             IN                           OUT
                                                      ----------------             ----------------
                               CONSTANT CONCENTRATION:    0.000000                    0.000000    
                                        CONSTANT HEAD:    0.000000                   -178398.3    
                                                WELLS:   0.7299993E+08                0.000000    
                               1ST/0TH ORDER REACTION:    0.000000                    0.000000    
                                MASS STORAGE (SOLUTE):   0.3825521E+08              -0.8783807E+08
                                MASS STORAGE (SORBED):   0.1521378E+08              -0.3797080E+08
                            ---------------------------------------------------------------------------
                                              [TOTAL]:   0.1264689E+09 KG           -0.1259873E+09 KG  

                                                          NET (IN - OUT):    481656.0    
                                                   DISCREPANCY (PERCENT):   0.3815759    
     1 CALLS TO GCG PACKAGE FOR TRANSPORT TIME STEP  80 IN FLOW TIME STEP   1 STRESS PERIOD   2
     3 TOTAL ITERATIONS



 >>>>>>>>>>>>>>>>>>>>>>>>>>>>>>>>>>>>>>>>>>>>>>>>>>>>>>>FOR COMPONENT NO. 01<<<<<<<<<<<<<<<<<<<<<<<<<<<<<<<<<<<<<<<<<<<<<<<<<<<<<<<


                                            -------------------------------------------
                                                      TRANSPORT STEP NO.   80
                                            -------------------------------------------

 TOTAL ELAPSED TIME SINCE BEGINNING OF SIMULATION =   13147.12    D   
 .....................................................................

                     CUMMULATIVE MASS BUDGETS AT END OF TRANSPORT STEP   80, TIME STEP    1, STRESS PERIOD    2
                     ------------------------------------------------------------------------------------------

                                                             IN                           OUT
                                                      ----------------             ----------------
                               CONSTANT CONCENTRATION:    0.000000                    0.000000    
                                        CONSTANT HEAD:    0.000000                   -196475.1    
                                                WELLS:   0.7299993E+08                0.000000    
                               1ST/0TH ORDER REACTION:    0.000000                    0.000000    
                                MASS STORAGE (SOLUTE):   0.3868930E+08              -0.8825004E+08
                                MASS STORAGE (SORBED):   0.1539697E+08              -0.3815674E+08
                            ---------------------------------------------------------------------------
                                              [TOTAL]:   0.1270862E+09 KG           -0.1266032E+09 KG  

                                                          NET (IN - OUT):    482952.0    
                                                   DISCREPANCY (PERCENT):   0.3807427    
     1 CALLS TO GCG PACKAGE FOR TRANSPORT TIME STEP  81 IN FLOW TIME STEP   1 STRESS PERIOD   2
     3 TOTAL ITERATIONS



 >>>>>>>>>>>>>>>>>>>>>>>>>>>>>>>>>>>>>>>>>>>>>>>>>>>>>>>FOR COMPONENT NO. 01<<<<<<<<<<<<<<<<<<<<<<<<<<<<<<<<<<<<<<<<<<<<<<<<<<<<<<<


                                            -------------------------------------------
                                                      TRANSPORT STEP NO.   81
                                            -------------------------------------------

 TOTAL ELAPSED TIME SINCE BEGINNING OF SIMULATION =   13220.20    D   
 .....................................................................

                     CUMMULATIVE MASS BUDGETS AT END OF TRANSPORT STEP   81, TIME STEP    1, STRESS PERIOD    2
                     ------------------------------------------------------------------------------------------

                                                             IN                           OUT
                                                      ----------------             ----------------
                               CONSTANT CONCENTRATION:    0.000000                    0.000000    
                                        CONSTANT HEAD:    0.000000                   -215983.0    
                                                WELLS:   0.7299993E+08                0.000000    
                               1ST/0TH ORDER REACTION:    0.000000                    0.000000    
                                MASS STORAGE (SOLUTE):   0.3912230E+08              -0.8866007E+08
                                MASS STORAGE (SORBED):   0.1557985E+08              -0.3834178E+08
                            ---------------------------------------------------------------------------
                                              [TOTAL]:   0.1277021E+09 KG           -0.1272178E+09 KG  

                                                          NET (IN - OUT):    484232.0    
                                                   DISCREPANCY (PERCENT):   0.3799091    
     1 CALLS TO GCG PACKAGE FOR TRANSPORT TIME STEP  82 IN FLOW TIME STEP   1 STRESS PERIOD   2
     3 TOTAL ITERATIONS



 >>>>>>>>>>>>>>>>>>>>>>>>>>>>>>>>>>>>>>>>>>>>>>>>>>>>>>>FOR COMPONENT NO. 01<<<<<<<<<<<<<<<<<<<<<<<<<<<<<<<<<<<<<<<<<<<<<<<<<<<<<<<


                                            -------------------------------------------
                                                      TRANSPORT STEP NO.   82
                                            -------------------------------------------

 TOTAL ELAPSED TIME SINCE BEGINNING OF SIMULATION =   13293.29    D   
 .....................................................................

                     CUMMULATIVE MASS BUDGETS AT END OF TRANSPORT STEP   82, TIME STEP    1, STRESS PERIOD    2
                     ------------------------------------------------------------------------------------------

                                                             IN                           OUT
                                                      ----------------             ----------------
                               CONSTANT CONCENTRATION:    0.000000                    0.000000    
                                        CONSTANT HEAD:    0.000000                   -236999.6    
                                                WELLS:   0.7299993E+08                0.000000    
                               1ST/0TH ORDER REACTION:    0.000000                    0.000000    
                                MASS STORAGE (SOLUTE):   0.3955424E+08              -0.8906817E+08
                                MASS STORAGE (SORBED):   0.1576244E+08              -0.3852592E+08
                            ---------------------------------------------------------------------------
                                              [TOTAL]:   0.1283166E+09 KG           -0.1278311E+09 KG  

                                                          NET (IN - OUT):    485520.0    
                                                   DISCREPANCY (PERCENT):   0.3790938    
     1 CALLS TO GCG PACKAGE FOR TRANSPORT TIME STEP  83 IN FLOW TIME STEP   1 STRESS PERIOD   2
     3 TOTAL ITERATIONS



 >>>>>>>>>>>>>>>>>>>>>>>>>>>>>>>>>>>>>>>>>>>>>>>>>>>>>>>FOR COMPONENT NO. 01<<<<<<<<<<<<<<<<<<<<<<<<<<<<<<<<<<<<<<<<<<<<<<<<<<<<<<<


                                            -------------------------------------------
                                                      TRANSPORT STEP NO.   83
                                            -------------------------------------------

 TOTAL ELAPSED TIME SINCE BEGINNING OF SIMULATION =   13366.38    D   
 .....................................................................

                     CUMMULATIVE MASS BUDGETS AT END OF TRANSPORT STEP   83, TIME STEP    1, STRESS PERIOD    2
                     ------------------------------------------------------------------------------------------

                                                             IN                           OUT
                                                      ----------------             ----------------
                               CONSTANT CONCENTRATION:    0.000000                    0.000000    
                                        CONSTANT HEAD:    0.000000                   -259604.3    
                                                WELLS:   0.7299993E+08                0.000000    
                               1ST/0TH ORDER REACTION:    0.000000                    0.000000    
                                MASS STORAGE (SOLUTE):   0.3998503E+08              -0.8947416E+08
                                MASS STORAGE (SORBED):   0.1594470E+08              -0.3870908E+08
                            ---------------------------------------------------------------------------
                                              [TOTAL]:   0.1289297E+09 KG           -0.1284428E+09 KG  

                                                          NET (IN - OUT):    486808.0    
                                                   DISCREPANCY (PERCENT):   0.3782906    
     1 CALLS TO GCG PACKAGE FOR TRANSPORT TIME STEP  84 IN FLOW TIME STEP   1 STRESS PERIOD   2
     3 TOTAL ITERATIONS



 >>>>>>>>>>>>>>>>>>>>>>>>>>>>>>>>>>>>>>>>>>>>>>>>>>>>>>>FOR COMPONENT NO. 01<<<<<<<<<<<<<<<<<<<<<<<<<<<<<<<<<<<<<<<<<<<<<<<<<<<<<<<


                                            -------------------------------------------
                                                      TRANSPORT STEP NO.   84
                                            -------------------------------------------

 TOTAL ELAPSED TIME SINCE BEGINNING OF SIMULATION =   13439.47    D   
 .....................................................................

                     CUMMULATIVE MASS BUDGETS AT END OF TRANSPORT STEP   84, TIME STEP    1, STRESS PERIOD    2
                     ------------------------------------------------------------------------------------------

                                                             IN                           OUT
                                                      ----------------             ----------------
                               CONSTANT CONCENTRATION:    0.000000                    0.000000    
                                        CONSTANT HEAD:    0.000000                   -283877.8    
                                                WELLS:   0.7299993E+08                0.000000    
                               1ST/0TH ORDER REACTION:    0.000000                    0.000000    
                                MASS STORAGE (SOLUTE):   0.4041475E+08              -0.8987808E+08
                                MASS STORAGE (SORBED):   0.1612665E+08              -0.3889128E+08
                            ---------------------------------------------------------------------------
                                              [TOTAL]:   0.1295413E+09 KG           -0.1290532E+09 KG  

                                                          NET (IN - OUT):    488096.0    
                                                   DISCREPANCY (PERCENT):   0.3774990    
     1 CALLS TO GCG PACKAGE FOR TRANSPORT TIME STEP  85 IN FLOW TIME STEP   1 STRESS PERIOD   2
     3 TOTAL ITERATIONS



 >>>>>>>>>>>>>>>>>>>>>>>>>>>>>>>>>>>>>>>>>>>>>>>>>>>>>>>FOR COMPONENT NO. 01<<<<<<<<<<<<<<<<<<<<<<<<<<<<<<<<<<<<<<<<<<<<<<<<<<<<<<<


                                            -------------------------------------------
                                                      TRANSPORT STEP NO.   85
                                            -------------------------------------------

 TOTAL ELAPSED TIME SINCE BEGINNING OF SIMULATION =   13512.56    D   
 .....................................................................

                     CUMMULATIVE MASS BUDGETS AT END OF TRANSPORT STEP   85, TIME STEP    1, STRESS PERIOD    2
                     ------------------------------------------------------------------------------------------

                                                             IN                           OUT
                                                      ----------------             ----------------
                               CONSTANT CONCENTRATION:    0.000000                    0.000000    
                                        CONSTANT HEAD:    0.000000                   -309902.6    
                                                WELLS:   0.7299993E+08                0.000000    
                               1ST/0TH ORDER REACTION:    0.000000                    0.000000    
                                MASS STORAGE (SOLUTE):   0.4084343E+08              -0.9027990E+08
                                MASS STORAGE (SORBED):   0.1630832E+08              -0.3907249E+08
                            ---------------------------------------------------------------------------
                                              [TOTAL]:   0.1301517E+09 KG           -0.1296623E+09 KG  

                                                          NET (IN - OUT):    489376.0    
                                                   DISCREPANCY (PERCENT):   0.3767126    
     1 CALLS TO GCG PACKAGE FOR TRANSPORT TIME STEP  86 IN FLOW TIME STEP   1 STRESS PERIOD   2
     3 TOTAL ITERATIONS



 >>>>>>>>>>>>>>>>>>>>>>>>>>>>>>>>>>>>>>>>>>>>>>>>>>>>>>>FOR COMPONENT NO. 01<<<<<<<<<<<<<<<<<<<<<<<<<<<<<<<<<<<<<<<<<<<<<<<<<<<<<<<


                                            -------------------------------------------
                                                      TRANSPORT STEP NO.   86
                                            -------------------------------------------

 TOTAL ELAPSED TIME SINCE BEGINNING OF SIMULATION =   13585.65    D   
 .....................................................................

                     CUMMULATIVE MASS BUDGETS AT END OF TRANSPORT STEP   86, TIME STEP    1, STRESS PERIOD    2
                     ------------------------------------------------------------------------------------------

                                                             IN                           OUT
                                                      ----------------             ----------------
                               CONSTANT CONCENTRATION:    0.000000                    0.000000    
                                        CONSTANT HEAD:    0.000000                   -337762.4    
                                                WELLS:   0.7299993E+08                0.000000    
                               1ST/0TH ORDER REACTION:    0.000000                    0.000000    
                                MASS STORAGE (SOLUTE):   0.4127101E+08              -0.9067950E+08
                                MASS STORAGE (SORBED):   0.1648967E+08              -0.3925267E+08
                            ---------------------------------------------------------------------------
                                              [TOTAL]:   0.1307606E+09 KG           -0.1302699E+09 KG  

                                                          NET (IN - OUT):    490672.0    
                                                   DISCREPANCY (PERCENT):   0.3759499    
     1 CALLS TO GCG PACKAGE FOR TRANSPORT TIME STEP  87 IN FLOW TIME STEP   1 STRESS PERIOD   2
     3 TOTAL ITERATIONS



 >>>>>>>>>>>>>>>>>>>>>>>>>>>>>>>>>>>>>>>>>>>>>>>>>>>>>>>FOR COMPONENT NO. 01<<<<<<<<<<<<<<<<<<<<<<<<<<<<<<<<<<<<<<<<<<<<<<<<<<<<<<<


                                            -------------------------------------------
                                                      TRANSPORT STEP NO.   87
                                            -------------------------------------------

 TOTAL ELAPSED TIME SINCE BEGINNING OF SIMULATION =   13658.74    D   
 .....................................................................

                     CUMMULATIVE MASS BUDGETS AT END OF TRANSPORT STEP   87, TIME STEP    1, STRESS PERIOD    2
                     ------------------------------------------------------------------------------------------

                                                             IN                           OUT
                                                      ----------------             ----------------
                               CONSTANT CONCENTRATION:    0.000000                    0.000000    
                                        CONSTANT HEAD:    0.000000                   -367542.1    
                                                WELLS:   0.7299993E+08                0.000000    
                               1ST/0TH ORDER REACTION:    0.000000                    0.000000    
                                MASS STORAGE (SOLUTE):   0.4169750E+08              -0.9107685E+08
                                MASS STORAGE (SORBED):   0.1667070E+08              -0.3943178E+08
                            ---------------------------------------------------------------------------
                                              [TOTAL]:   0.1313681E+09 KG           -0.1308762E+09 KG  

                                                          NET (IN - OUT):    491952.0    
                                                   DISCREPANCY (PERCENT):   0.3751860    
     1 CALLS TO GCG PACKAGE FOR TRANSPORT TIME STEP  88 IN FLOW TIME STEP   1 STRESS PERIOD   2
     3 TOTAL ITERATIONS



 >>>>>>>>>>>>>>>>>>>>>>>>>>>>>>>>>>>>>>>>>>>>>>>>>>>>>>>FOR COMPONENT NO. 01<<<<<<<<<<<<<<<<<<<<<<<<<<<<<<<<<<<<<<<<<<<<<<<<<<<<<<<


                                            -------------------------------------------
                                                      TRANSPORT STEP NO.   88
                                            -------------------------------------------

 TOTAL ELAPSED TIME SINCE BEGINNING OF SIMULATION =   13731.83    D   
 .....................................................................

                     CUMMULATIVE MASS BUDGETS AT END OF TRANSPORT STEP   88, TIME STEP    1, STRESS PERIOD    2
                     ------------------------------------------------------------------------------------------

                                                             IN                           OUT
                                                      ----------------             ----------------
                               CONSTANT CONCENTRATION:    0.000000                    0.000000    
                                        CONSTANT HEAD:    0.000000                   -399328.0    
                                                WELLS:   0.7299993E+08                0.000000    
                               1ST/0TH ORDER REACTION:    0.000000                    0.000000    
                                MASS STORAGE (SOLUTE):   0.4212294E+08              -0.9147190E+08
                                MASS STORAGE (SORBED):   0.1685144E+08              -0.3960983E+08
                            ---------------------------------------------------------------------------
                                              [TOTAL]:   0.1319743E+09 KG           -0.1314811E+09 KG  

                                                          NET (IN - OUT):    493248.0    
                                                   DISCREPANCY (PERCENT):   0.3744452    
     1 CALLS TO GCG PACKAGE FOR TRANSPORT TIME STEP  89 IN FLOW TIME STEP   1 STRESS PERIOD   2
     3 TOTAL ITERATIONS



 >>>>>>>>>>>>>>>>>>>>>>>>>>>>>>>>>>>>>>>>>>>>>>>>>>>>>>>FOR COMPONENT NO. 01<<<<<<<<<<<<<<<<<<<<<<<<<<<<<<<<<<<<<<<<<<<<<<<<<<<<<<<


                                            -------------------------------------------
                                                      TRANSPORT STEP NO.   89
                                            -------------------------------------------

 TOTAL ELAPSED TIME SINCE BEGINNING OF SIMULATION =   13804.92    D   
 .....................................................................

                     CUMMULATIVE MASS BUDGETS AT END OF TRANSPORT STEP   89, TIME STEP    1, STRESS PERIOD    2
                     ------------------------------------------------------------------------------------------

                                                             IN                           OUT
                                                      ----------------             ----------------
                               CONSTANT CONCENTRATION:    0.000000                    0.000000    
                                        CONSTANT HEAD:    0.000000                   -433207.2    
                                                WELLS:   0.7299993E+08                0.000000    
                               1ST/0TH ORDER REACTION:    0.000000                    0.000000    
                                MASS STORAGE (SOLUTE):   0.4254733E+08              -0.9186461E+08
                                MASS STORAGE (SORBED):   0.1703188E+08              -0.3978677E+08
                            ---------------------------------------------------------------------------
                                              [TOTAL]:   0.1325791E+09 KG           -0.1320846E+09 KG  

                                                          NET (IN - OUT):    494552.0    
                                                   DISCREPANCY (PERCENT):   0.3737210    
     1 CALLS TO GCG PACKAGE FOR TRANSPORT TIME STEP  90 IN FLOW TIME STEP   1 STRESS PERIOD   2
     3 TOTAL ITERATIONS



 >>>>>>>>>>>>>>>>>>>>>>>>>>>>>>>>>>>>>>>>>>>>>>>>>>>>>>>FOR COMPONENT NO. 01<<<<<<<<<<<<<<<<<<<<<<<<<<<<<<<<<<<<<<<<<<<<<<<<<<<<<<<


                                            -------------------------------------------
                                                      TRANSPORT STEP NO.   90
                                            -------------------------------------------

 TOTAL ELAPSED TIME SINCE BEGINNING OF SIMULATION =   13878.00    D   
 .....................................................................

                     CUMMULATIVE MASS BUDGETS AT END OF TRANSPORT STEP   90, TIME STEP    1, STRESS PERIOD    2
                     ------------------------------------------------------------------------------------------

                                                             IN                           OUT
                                                      ----------------             ----------------
                               CONSTANT CONCENTRATION:    0.000000                    0.000000    
                                        CONSTANT HEAD:    0.000000                   -469267.7    
                                                WELLS:   0.7299993E+08                0.000000    
                               1ST/0TH ORDER REACTION:    0.000000                    0.000000    
                                MASS STORAGE (SOLUTE):   0.4297066E+08              -0.9225490E+08
                                MASS STORAGE (SORBED):   0.1721201E+08              -0.3996258E+08
                            ---------------------------------------------------------------------------
                                              [TOTAL]:   0.1331826E+09 KG           -0.1326867E+09 KG  

                                                          NET (IN - OUT):    495864.0    
                                                   DISCREPANCY (PERCENT):   0.3730133    
     1 CALLS TO GCG PACKAGE FOR TRANSPORT TIME STEP  91 IN FLOW TIME STEP   1 STRESS PERIOD   2
     3 TOTAL ITERATIONS



 >>>>>>>>>>>>>>>>>>>>>>>>>>>>>>>>>>>>>>>>>>>>>>>>>>>>>>>FOR COMPONENT NO. 01<<<<<<<<<<<<<<<<<<<<<<<<<<<<<<<<<<<<<<<<<<<<<<<<<<<<<<<


                                            -------------------------------------------
                                                      TRANSPORT STEP NO.   91
                                            -------------------------------------------

 TOTAL ELAPSED TIME SINCE BEGINNING OF SIMULATION =   13951.09    D   
 .....................................................................

                     CUMMULATIVE MASS BUDGETS AT END OF TRANSPORT STEP   91, TIME STEP    1, STRESS PERIOD    2
                     ------------------------------------------------------------------------------------------

                                                             IN                           OUT
                                                      ----------------             ----------------
                               CONSTANT CONCENTRATION:    0.000000                    0.000000    
                                        CONSTANT HEAD:    0.000000                   -507598.4    
                                                WELLS:   0.7299993E+08                0.000000    
                               1ST/0TH ORDER REACTION:    0.000000                    0.000000    
                                MASS STORAGE (SOLUTE):   0.4339294E+08              -0.9264271E+08
                                MASS STORAGE (SORBED):   0.1739183E+08              -0.4013723E+08
                            ---------------------------------------------------------------------------
                                              [TOTAL]:   0.1337847E+09 KG           -0.1332875E+09 KG  

                                                          NET (IN - OUT):    497152.0    
                                                   DISCREPANCY (PERCENT):   0.3722978    
     1 CALLS TO GCG PACKAGE FOR TRANSPORT TIME STEP  92 IN FLOW TIME STEP   1 STRESS PERIOD   2
     3 TOTAL ITERATIONS



 >>>>>>>>>>>>>>>>>>>>>>>>>>>>>>>>>>>>>>>>>>>>>>>>>>>>>>>FOR COMPONENT NO. 01<<<<<<<<<<<<<<<<<<<<<<<<<<<<<<<<<<<<<<<<<<<<<<<<<<<<<<<


                                            -------------------------------------------
                                                      TRANSPORT STEP NO.   92
                                            -------------------------------------------

 TOTAL ELAPSED TIME SINCE BEGINNING OF SIMULATION =   14024.18    D   
 .....................................................................

                     CUMMULATIVE MASS BUDGETS AT END OF TRANSPORT STEP   92, TIME STEP    1, STRESS PERIOD    2
                     ------------------------------------------------------------------------------------------

                                                             IN                           OUT
                                                      ----------------             ----------------
                               CONSTANT CONCENTRATION:    0.000000                    0.000000    
                                        CONSTANT HEAD:    0.000000                   -548288.8    
                                                WELLS:   0.7299993E+08                0.000000    
                               1ST/0TH ORDER REACTION:    0.000000                    0.000000    
                                MASS STORAGE (SOLUTE):   0.4381416E+08              -0.9302799E+08
                                MASS STORAGE (SORBED):   0.1757135E+08              -0.4031069E+08
                            ---------------------------------------------------------------------------
                                              [TOTAL]:   0.1343854E+09 KG           -0.1338870E+09 KG  

                                                          NET (IN - OUT):    498464.0    
                                                   DISCREPANCY (PERCENT):   0.3716103    
     1 CALLS TO GCG PACKAGE FOR TRANSPORT TIME STEP  93 IN FLOW TIME STEP   1 STRESS PERIOD   2
     3 TOTAL ITERATIONS



 >>>>>>>>>>>>>>>>>>>>>>>>>>>>>>>>>>>>>>>>>>>>>>>>>>>>>>>FOR COMPONENT NO. 01<<<<<<<<<<<<<<<<<<<<<<<<<<<<<<<<<<<<<<<<<<<<<<<<<<<<<<<


                                            -------------------------------------------
                                                      TRANSPORT STEP NO.   93
                                            -------------------------------------------

 TOTAL ELAPSED TIME SINCE BEGINNING OF SIMULATION =   14097.27    D   
 .....................................................................

                     CUMMULATIVE MASS BUDGETS AT END OF TRANSPORT STEP   93, TIME STEP    1, STRESS PERIOD    2
                     ------------------------------------------------------------------------------------------

                                                             IN                           OUT
                                                      ----------------             ----------------
                               CONSTANT CONCENTRATION:    0.000000                    0.000000    
                                        CONSTANT HEAD:    0.000000                   -591428.8    
                                                WELLS:   0.7299993E+08                0.000000    
                               1ST/0TH ORDER REACTION:    0.000000                    0.000000    
                                MASS STORAGE (SOLUTE):   0.4423436E+08              -0.9341070E+08
                                MASS STORAGE (SORBED):   0.1775057E+08              -0.4048295E+08
                            ---------------------------------------------------------------------------
                                              [TOTAL]:   0.1349849E+09 KG           -0.1344851E+09 KG  

                                                          NET (IN - OUT):    499776.0    
                                                   DISCREPANCY (PERCENT):   0.3709326    
     1 CALLS TO GCG PACKAGE FOR TRANSPORT TIME STEP  94 IN FLOW TIME STEP   1 STRESS PERIOD   2
     3 TOTAL ITERATIONS



 >>>>>>>>>>>>>>>>>>>>>>>>>>>>>>>>>>>>>>>>>>>>>>>>>>>>>>>FOR COMPONENT NO. 01<<<<<<<<<<<<<<<<<<<<<<<<<<<<<<<<<<<<<<<<<<<<<<<<<<<<<<<


                                            -------------------------------------------
                                                      TRANSPORT STEP NO.   94
                                            -------------------------------------------

 TOTAL ELAPSED TIME SINCE BEGINNING OF SIMULATION =   14170.36    D   
 .....................................................................

                     CUMMULATIVE MASS BUDGETS AT END OF TRANSPORT STEP   94, TIME STEP    1, STRESS PERIOD    2
                     ------------------------------------------------------------------------------------------

                                                             IN                           OUT
                                                      ----------------             ----------------
                               CONSTANT CONCENTRATION:    0.000000                    0.000000    
                                        CONSTANT HEAD:    0.000000                   -637108.8    
                                                WELLS:   0.7299993E+08                0.000000    
                               1ST/0TH ORDER REACTION:    0.000000                    0.000000    
                                MASS STORAGE (SOLUTE):   0.4465354E+08              -0.9379078E+08
                                MASS STORAGE (SORBED):   0.1792950E+08              -0.4065397E+08
                            ---------------------------------------------------------------------------
                                              [TOTAL]:   0.1355830E+09 KG           -0.1350819E+09 KG  

                                                          NET (IN - OUT):    501120.0    
                                                   DISCREPANCY (PERCENT):   0.3702882    
     1 CALLS TO GCG PACKAGE FOR TRANSPORT TIME STEP  95 IN FLOW TIME STEP   1 STRESS PERIOD   2
     3 TOTAL ITERATIONS



 >>>>>>>>>>>>>>>>>>>>>>>>>>>>>>>>>>>>>>>>>>>>>>>>>>>>>>>FOR COMPONENT NO. 01<<<<<<<<<<<<<<<<<<<<<<<<<<<<<<<<<<<<<<<<<<<<<<<<<<<<<<<


                                            -------------------------------------------
                                                      TRANSPORT STEP NO.   95
                                            -------------------------------------------

 TOTAL ELAPSED TIME SINCE BEGINNING OF SIMULATION =   14243.45    D   
 .....................................................................

                     CUMMULATIVE MASS BUDGETS AT END OF TRANSPORT STEP   95, TIME STEP    1, STRESS PERIOD    2
                     ------------------------------------------------------------------------------------------

                                                             IN                           OUT
                                                      ----------------             ----------------
                               CONSTANT CONCENTRATION:    0.000000                    0.000000    
                                        CONSTANT HEAD:    0.000000                   -685419.6    
                                                WELLS:   0.7299993E+08                0.000000    
                               1ST/0TH ORDER REACTION:    0.000000                    0.000000    
                                MASS STORAGE (SOLUTE):   0.4507166E+08              -0.9416814E+08
                                MASS STORAGE (SORBED):   0.1810811E+08              -0.4082371E+08
                            ---------------------------------------------------------------------------
                                              [TOTAL]:   0.1361797E+09 KG           -0.1356773E+09 KG  

                                                          NET (IN - OUT):    502432.0    
                                                   DISCREPANCY (PERCENT):   0.3696296    
     1 CALLS TO GCG PACKAGE FOR TRANSPORT TIME STEP  96 IN FLOW TIME STEP   1 STRESS PERIOD   2
     3 TOTAL ITERATIONS



 >>>>>>>>>>>>>>>>>>>>>>>>>>>>>>>>>>>>>>>>>>>>>>>>>>>>>>>FOR COMPONENT NO. 01<<<<<<<<<<<<<<<<<<<<<<<<<<<<<<<<<<<<<<<<<<<<<<<<<<<<<<<


                                            -------------------------------------------
                                                      TRANSPORT STEP NO.   96
                                            -------------------------------------------

 TOTAL ELAPSED TIME SINCE BEGINNING OF SIMULATION =   14316.54    D   
 .....................................................................

                     CUMMULATIVE MASS BUDGETS AT END OF TRANSPORT STEP   96, TIME STEP    1, STRESS PERIOD    2
                     ------------------------------------------------------------------------------------------

                                                             IN                           OUT
                                                      ----------------             ----------------
                               CONSTANT CONCENTRATION:    0.000000                    0.000000    
                                        CONSTANT HEAD:    0.000000                   -736451.8    
                                                WELLS:   0.7299993E+08                0.000000    
                               1ST/0TH ORDER REACTION:    0.000000                    0.000000    
                                MASS STORAGE (SOLUTE):   0.4548875E+08              -0.9454273E+08
                                MASS STORAGE (SORBED):   0.1828642E+08              -0.4099216E+08
                            ---------------------------------------------------------------------------
                                              [TOTAL]:   0.1367751E+09 KG           -0.1362713E+09 KG  

                                                          NET (IN - OUT):    503760.0    
                                                   DISCREPANCY (PERCENT):   0.3689922    
     1 CALLS TO GCG PACKAGE FOR TRANSPORT TIME STEP  97 IN FLOW TIME STEP   1 STRESS PERIOD   2
     3 TOTAL ITERATIONS



 >>>>>>>>>>>>>>>>>>>>>>>>>>>>>>>>>>>>>>>>>>>>>>>>>>>>>>>FOR COMPONENT NO. 01<<<<<<<<<<<<<<<<<<<<<<<<<<<<<<<<<<<<<<<<<<<<<<<<<<<<<<<


                                            -------------------------------------------
                                                      TRANSPORT STEP NO.   97
                                            -------------------------------------------

 TOTAL ELAPSED TIME SINCE BEGINNING OF SIMULATION =   14389.63    D   
 .....................................................................

                     CUMMULATIVE MASS BUDGETS AT END OF TRANSPORT STEP   97, TIME STEP    1, STRESS PERIOD    2
                     ------------------------------------------------------------------------------------------

                                                             IN                           OUT
                                                      ----------------             ----------------
                               CONSTANT CONCENTRATION:    0.000000                    0.000000    
                                        CONSTANT HEAD:    0.000000                   -790296.1    
                                                WELLS:   0.7299993E+08                0.000000    
                               1ST/0TH ORDER REACTION:    0.000000                    0.000000    
                                MASS STORAGE (SOLUTE):   0.4590484E+08              -0.9491453E+08
                                MASS STORAGE (SORBED):   0.1846444E+08              -0.4115929E+08
                            ---------------------------------------------------------------------------
                                              [TOTAL]:   0.1373692E+09 KG           -0.1368641E+09 KG  

                                                          NET (IN - OUT):    505088.0    
                                                   DISCREPANCY (PERCENT):   0.3683637    
     1 CALLS TO GCG PACKAGE FOR TRANSPORT TIME STEP  98 IN FLOW TIME STEP   1 STRESS PERIOD   2
     3 TOTAL ITERATIONS



 >>>>>>>>>>>>>>>>>>>>>>>>>>>>>>>>>>>>>>>>>>>>>>>>>>>>>>>FOR COMPONENT NO. 01<<<<<<<<<<<<<<<<<<<<<<<<<<<<<<<<<<<<<<<<<<<<<<<<<<<<<<<


                                            -------------------------------------------
                                                      TRANSPORT STEP NO.   98
                                            -------------------------------------------

 TOTAL ELAPSED TIME SINCE BEGINNING OF SIMULATION =   14462.71    D   
 .....................................................................

                     CUMMULATIVE MASS BUDGETS AT END OF TRANSPORT STEP   98, TIME STEP    1, STRESS PERIOD    2
                     ------------------------------------------------------------------------------------------

                                                             IN                           OUT
                                                      ----------------             ----------------
                               CONSTANT CONCENTRATION:    0.000000                    0.000000    
                                        CONSTANT HEAD:    0.000000                   -847043.3    
                                                WELLS:   0.7299993E+08                0.000000    
                               1ST/0TH ORDER REACTION:    0.000000                    0.000000    
                                MASS STORAGE (SOLUTE):   0.4631990E+08              -0.9528342E+08
                                MASS STORAGE (SORBED):   0.1864215E+08              -0.4132507E+08
                            ---------------------------------------------------------------------------
                                              [TOTAL]:   0.1379620E+09 KG           -0.1374555E+09 KG  

                                                          NET (IN - OUT):    506448.0    
                                                   DISCREPANCY (PERCENT):   0.3677675    
     1 CALLS TO GCG PACKAGE FOR TRANSPORT TIME STEP  99 IN FLOW TIME STEP   1 STRESS PERIOD   2
     3 TOTAL ITERATIONS



 >>>>>>>>>>>>>>>>>>>>>>>>>>>>>>>>>>>>>>>>>>>>>>>>>>>>>>>FOR COMPONENT NO. 01<<<<<<<<<<<<<<<<<<<<<<<<<<<<<<<<<<<<<<<<<<<<<<<<<<<<<<<


                                            -------------------------------------------
                                                      TRANSPORT STEP NO.   99
                                            -------------------------------------------

 TOTAL ELAPSED TIME SINCE BEGINNING OF SIMULATION =   14535.80    D   
 .....................................................................

                     CUMMULATIVE MASS BUDGETS AT END OF TRANSPORT STEP   99, TIME STEP    1, STRESS PERIOD    2
                     ------------------------------------------------------------------------------------------

                                                             IN                           OUT
                                                      ----------------             ----------------
                               CONSTANT CONCENTRATION:    0.000000                    0.000000    
                                        CONSTANT HEAD:    0.000000                   -906783.6    
                                                WELLS:   0.7299993E+08                0.000000    
                               1ST/0TH ORDER REACTION:    0.000000                    0.000000    
                                MASS STORAGE (SOLUTE):   0.4673396E+08              -0.9564938E+08
                                MASS STORAGE (SORBED):   0.1881957E+08              -0.4148948E+08
                            ---------------------------------------------------------------------------
                                              [TOTAL]:   0.1385535E+09 KG           -0.1380456E+09 KG  

                                                          NET (IN - OUT):    507808.0    
                                                   DISCREPANCY (PERCENT):   0.3671798    
     1 CALLS TO GCG PACKAGE FOR TRANSPORT TIME STEP 100 IN FLOW TIME STEP   1 STRESS PERIOD   2
     3 TOTAL ITERATIONS
  MAXIMUM CONCENTRATION CHANGES FOR EACH ITERATION:
  MAX. CHANGE LAYER,ROW,COL MAX. CHANGE LAYER,ROW,COL MAX. CHANGE LAYER,ROW,COL MAX. CHANGE LAYER,ROW,COL MAX. CHANGE LAYER,ROW,COL
 ------------------------------------------------------------------------------------------------------------------------------------
   0.2963E-01 (  1, 26, 81)  0.2445E-03 (  1, 27, 80)  0.1580E-05 (  1, 28, 79)



 >>>>>>>>>>>>>>>>>>>>>>>>>>>>>>>>>>>>>>>>>>>>>>>>>>>>>>>FOR COMPONENT NO. 01<<<<<<<<<<<<<<<<<<<<<<<<<<<<<<<<<<<<<<<<<<<<<<<<<<<<<<<


                                            -------------------------------------------
                                                      TRANSPORT STEP NO.  100
                                            -------------------------------------------

 TOTAL ELAPSED TIME SINCE BEGINNING OF SIMULATION =   14600.00    D   
 .....................................................................

                     CUMMULATIVE MASS BUDGETS AT END OF TRANSPORT STEP  100, TIME STEP    1, STRESS PERIOD    2
                     ------------------------------------------------------------------------------------------

                                                             IN                           OUT
                                                      ----------------             ----------------
                               CONSTANT CONCENTRATION:    0.000000                    0.000000    
                                        CONSTANT HEAD:    0.000000                   -961655.4    
                                                WELLS:   0.7299993E+08                0.000000    
                               1ST/0TH ORDER REACTION:    0.000000                    0.000000    
                                MASS STORAGE (SOLUTE):   0.4709675E+08              -0.9596847E+08
                                MASS STORAGE (SORBED):   0.1897512E+08              -0.4163282E+08
                            ---------------------------------------------------------------------------
                                              [TOTAL]:   0.1390718E+09 KG           -0.1385629E+09 KG  

                                                          NET (IN - OUT):    508848.0    
                                                   DISCREPANCY (PERCENT):   0.3665593    
  ----- 
 | M T |
 | 3 D | END OF MODEL OUTPUT
  ----- 
